<?xml version="1.0" encoding="UTF-8"?>

<!-- generated on Fri Feb 28 09:29:56 2020 by Eclipse SUMO netconvert Version 1.4.0
<configuration xmlns:xsi="http://www.w3.org/2001/XMLSchema-instance" xsi:noNamespaceSchemaLocation="http://sumo.dlr.de/xsd/netconvertConfiguration.xsd">

    <input>
        <osm-files value="sebudi.osm"/>
    </input>

    <output>
        <output-file value="sebudi.net.xml"/>
    </output>

    <projection>
        <proj.utm value="true"/>
    </projection>

    <report>
        <aggregate-warnings value="5"/>
    </report>

</configuration>
-->

<net version="1.3" junctionCornerDetail="5" limitTurnSpeed="5.50" xmlns:xsi="http://www.w3.org/2001/XMLSchema-instance" xsi:noNamespaceSchemaLocation="http://sumo.dlr.de/xsd/net_file.xsd">

    <location netOffset="-329165.89,930795.17" convBoundary="0.00,0.00,3234.80,4455.53" origBoundary="115.448347,-8.417527,115.477864,-8.377353" projParameter="+proj=utm +zone=50 +ellps=WGS84 +datum=WGS84 +units=m +no_defs"/>

    <type id="highway.bridleway" priority="1" numLanes="1" speed="2.78" allow="pedestrian" oneway="1" width="2.00"/>
    <type id="highway.bus_guideway" priority="1" numLanes="1" speed="27.78" allow="bus" oneway="1"/>
    <type id="highway.cycleway" priority="1" numLanes="1" speed="8.33" allow="bicycle" oneway="0" width="1.00"/>
    <type id="highway.footway" priority="1" numLanes="1" speed="2.78" allow="pedestrian" oneway="1" width="2.00"/>
    <type id="highway.ford" priority="1" numLanes="1" speed="2.78" allow="army" oneway="0"/>
    <type id="highway.living_street" priority="2" numLanes="1" speed="2.78" disallow="tram rail_urban rail rail_electric rail_fast ship" oneway="0"/>
    <type id="highway.motorway" priority="14" numLanes="2" speed="39.44" allow="private emergency authority army vip passenger hov taxi bus coach delivery truck trailer motorcycle evehicle custom1 custom2" oneway="1"/>
    <type id="highway.motorway_link" priority="9" numLanes="1" speed="22.22" allow="private emergency authority army vip passenger hov taxi bus coach delivery truck trailer motorcycle evehicle custom1 custom2" oneway="1"/>
    <type id="highway.path" priority="1" numLanes="1" speed="2.78" allow="pedestrian bicycle" oneway="1" width="2.00"/>
    <type id="highway.pedestrian" priority="1" numLanes="1" speed="2.78" allow="pedestrian" oneway="1" width="2.00"/>
    <type id="highway.primary" priority="12" numLanes="2" speed="27.78" disallow="tram rail_urban rail rail_electric rail_fast ship" oneway="0"/>
    <type id="highway.primary_link" priority="7" numLanes="1" speed="22.22" disallow="tram rail_urban rail rail_electric rail_fast ship" oneway="0"/>
    <type id="highway.raceway" priority="15" numLanes="2" speed="83.33" allow="vip" oneway="0"/>
    <type id="highway.residential" priority="3" numLanes="1" speed="13.89" disallow="tram rail_urban rail rail_electric rail_fast ship" oneway="0"/>
    <type id="highway.secondary" priority="11" numLanes="1" speed="27.78" disallow="tram rail_urban rail rail_electric rail_fast ship" oneway="0"/>
    <type id="highway.secondary_link" priority="6" numLanes="1" speed="22.22" disallow="tram rail_urban rail rail_electric rail_fast ship" oneway="0"/>
    <type id="highway.service" priority="1" numLanes="1" speed="5.56" allow="pedestrian delivery bicycle" oneway="0"/>
    <type id="highway.stairs" priority="1" numLanes="1" speed="1.39" allow="pedestrian" oneway="1" width="2.00"/>
    <type id="highway.step" priority="1" numLanes="1" speed="1.39" allow="pedestrian" oneway="1" width="2.00"/>
    <type id="highway.steps" priority="1" numLanes="1" speed="1.39" allow="pedestrian" oneway="1" width="2.00"/>
    <type id="highway.tertiary" priority="10" numLanes="1" speed="22.22" disallow="tram rail_urban rail rail_electric rail_fast ship" oneway="0"/>
    <type id="highway.tertiary_link" priority="5" numLanes="1" speed="22.22" disallow="tram rail_urban rail rail_electric rail_fast ship" oneway="0"/>
    <type id="highway.track" priority="1" numLanes="1" speed="5.56" disallow="tram rail_urban rail rail_electric rail_fast ship" oneway="0"/>
    <type id="highway.trunk" priority="13" numLanes="2" speed="27.78" disallow="pedestrian bicycle tram rail_urban rail rail_electric rail_fast ship" oneway="0"/>
    <type id="highway.trunk_link" priority="8" numLanes="1" speed="22.22" disallow="pedestrian bicycle tram rail_urban rail rail_electric rail_fast ship" oneway="0"/>
    <type id="highway.unclassified" priority="4" numLanes="1" speed="13.89" disallow="tram rail_urban rail rail_electric rail_fast ship" oneway="0"/>
    <type id="highway.unsurfaced" priority="1" numLanes="1" speed="8.33" disallow="tram rail_urban rail rail_electric rail_fast ship" oneway="0"/>
    <type id="railway.highspeed" priority="21" numLanes="1" speed="69.44" allow="rail_fast" oneway="1"/>
    <type id="railway.light_rail" priority="19" numLanes="1" speed="27.78" allow="rail_urban" oneway="1"/>
    <type id="railway.preserved" priority="16" numLanes="1" speed="27.78" allow="rail" oneway="1"/>
    <type id="railway.rail" priority="20" numLanes="1" speed="44.44" allow="rail" oneway="1"/>
    <type id="railway.subway" priority="18" numLanes="1" speed="27.78" allow="rail_urban" oneway="1"/>
    <type id="railway.tram" priority="17" numLanes="1" speed="13.89" allow="tram" oneway="1"/>

    <edge id=":1553943673_0" function="internal">
        <lane id=":1553943673_0_0" index="0" disallow="tram rail_urban rail rail_electric rail_fast ship" speed="3.65" length="4.67" shape="16.97,0.06 17.73,-1.17 18.51,-1.60 19.32,-1.23 20.17,-0.06"/>
    </edge>
    <edge id=":1553949743_0" function="internal">
        <lane id=":1553949743_0_0" index="0" disallow="tram rail_urban rail rail_electric rail_fast ship" speed="22.22" length="13.16" shape="2048.01,2716.15 2046.70,2712.95 2045.39,2710.12 2043.92,2707.37 2042.13,2704.40"/>
    </edge>
    <edge id=":1553949743_1" function="internal">
        <lane id=":1553949743_1_0" index="0" disallow="tram rail_urban rail rail_electric rail_fast ship" speed="8.01" length="5.52" shape="2048.01,2716.15 2047.15,2712.50 2047.43,2710.75"/>
    </edge>
    <edge id=":1553949743_2" function="internal">
        <lane id=":1553949743_2_0" index="0" disallow="tram rail_urban rail rail_electric rail_fast ship" speed="3.65" length="2.34" shape="2048.01,2716.15 2048.32,2714.74 2048.92,2714.08"/>
    </edge>
    <edge id=":1553949743_9" function="internal">
        <lane id=":1553949743_9_0" index="0" disallow="tram rail_urban rail rail_electric rail_fast ship" speed="8.01" length="8.23" shape="2047.43,2710.75 2047.64,2709.41 2049.48,2706.88 2052.66,2704.90"/>
    </edge>
    <edge id=":1553949743_10" function="internal">
        <lane id=":1553949743_10_0" index="0" disallow="tram rail_urban rail rail_electric rail_fast ship" speed="3.65" length="2.34" shape="2048.92,2714.08 2049.81,2714.16 2050.99,2714.99"/>
    </edge>
    <edge id=":1553949743_3" function="internal">
        <lane id=":1553949743_3_0" index="0" disallow="tram rail_urban rail rail_electric rail_fast ship" speed="6.51" length="8.75" shape="2053.95,2707.83 2051.92,2709.09 2050.76,2710.70 2050.45,2712.67 2050.99,2714.99"/>
    </edge>
    <edge id=":1553949743_4" function="internal">
        <lane id=":1553949743_4_0" index="0" disallow="tram rail_urban rail rail_electric rail_fast ship" speed="8.29" length="13.63" shape="2053.95,2707.83 2050.37,2708.87 2047.21,2708.64 2044.46,2707.15 2042.13,2704.40"/>
    </edge>
    <edge id=":1553949743_5" function="internal">
        <lane id=":1553949743_5_0" index="0" disallow="tram rail_urban rail rail_electric rail_fast ship" speed="3.65" length="4.67" shape="2053.95,2707.83 2052.53,2707.58 2051.84,2707.01 2051.89,2706.11 2052.66,2704.90"/>
    </edge>
    <edge id=":1553949743_6" function="internal">
        <lane id=":1553949743_6_0" index="0" disallow="tram rail_urban rail rail_electric rail_fast ship" speed="6.85" length="8.99" shape="2044.84,2702.70 2046.37,2704.50 2048.18,2705.46 2050.28,2705.60 2052.66,2704.90"/>
    </edge>
    <edge id=":1553949743_7" function="internal">
        <lane id=":1553949743_7_0" index="0" disallow="tram rail_urban rail rail_electric rail_fast ship" speed="22.22" length="13.76" shape="2044.84,2702.70 2046.67,2705.76 2048.23,2708.69 2049.64,2711.70 2050.99,2714.99"/>
    </edge>
    <edge id=":1553949743_8" function="internal">
        <lane id=":1553949743_8_0" index="0" disallow="tram rail_urban rail rail_electric rail_fast ship" speed="3.65" length="2.34" shape="2044.84,2702.70 2044.80,2704.15 2044.34,2704.91"/>
    </edge>
    <edge id=":1553949743_11" function="internal">
        <lane id=":1553949743_11_0" index="0" disallow="tram rail_urban rail rail_electric rail_fast ship" speed="3.65" length="2.34" shape="2044.34,2704.91 2043.45,2705.00 2042.13,2704.40"/>
    </edge>
    <edge id=":1553949747_0" function="internal">
        <lane id=":1553949747_0_0" index="0" disallow="tram rail_urban rail rail_electric rail_fast ship" speed="3.65" length="4.67" shape="3236.03,4454.51 3236.18,4455.95 3235.82,4456.76 3234.95,4456.96 3233.56,4456.55"/>
    </edge>
    <edge id=":1553949789_0" function="internal">
        <lane id=":1553949789_0_0" index="0" disallow="tram rail_urban rail rail_electric rail_fast ship" speed="22.22" length="14.26" shape="2360.89,3348.91 2358.78,3345.94 2356.70,3343.14 2354.52,3340.40 2352.15,3337.65"/>
    </edge>
    <edge id=":1553949789_1" function="internal">
        <lane id=":1553949789_1_0" index="0" disallow="tram rail_urban rail rail_electric rail_fast ship" speed="7.55" length="6.02" shape="2360.89,3348.91 2358.85,3344.89 2358.86,3343.37"/>
    </edge>
    <edge id=":1553949789_2" function="internal">
        <lane id=":1553949789_2_0" index="0" disallow="tram rail_urban rail rail_electric rail_fast ship" speed="3.65" length="2.34" shape="2360.89,3348.91 2360.86,3347.47 2361.28,3346.68"/>
    </edge>
    <edge id=":1553949789_9" function="internal">
        <lane id=":1553949789_9_0" index="0" disallow="tram rail_urban rail rail_electric rail_fast ship" speed="7.55" length="9.59" shape="2358.86,3343.37 2358.86,3341.59 2360.92,3339.01 2365.02,3337.15"/>
    </edge>
    <edge id=":1553949789_10" function="internal">
        <lane id=":1553949789_10_0" index="0" disallow="tram rail_urban rail rail_electric rail_fast ship" speed="3.65" length="2.34" shape="2361.28,3346.68 2362.17,3346.55 2363.51,3347.07"/>
    </edge>
    <edge id=":1553949789_3" function="internal">
        <lane id=":1553949789_3_0" index="0" disallow="tram rail_urban rail rail_electric rail_fast ship" speed="5.92" length="9.10" shape="2365.92,3340.22 2363.53,3341.30 2362.33,3342.81 2362.32,3344.73 2363.51,3347.07"/>
    </edge>
    <edge id=":1553949789_4" function="internal">
        <lane id=":1553949789_4_0" index="0" disallow="tram rail_urban rail rail_electric rail_fast ship" speed="9.94" length="14.81" shape="2365.92,3340.22 2361.66,3341.06 2357.94,3340.91 2354.77,3339.77 2352.15,3337.65"/>
    </edge>
    <edge id=":1553949789_5" function="internal">
        <lane id=":1553949789_5_0" index="0" disallow="tram rail_urban rail rail_electric rail_fast ship" speed="3.65" length="4.67" shape="2365.92,3340.22 2364.55,3339.79 2363.94,3339.13 2364.10,3338.25 2365.02,3337.15"/>
    </edge>
    <edge id=":1553949789_6" function="internal">
        <lane id=":1553949789_6_0" index="0" disallow="tram rail_urban rail rail_electric rail_fast ship" speed="8.71" length="11.21" shape="2354.53,3335.51 2356.44,3337.01 2358.83,3337.79 2361.69,3337.83 2365.02,3337.15"/>
    </edge>
    <edge id=":1553949789_7" function="internal">
        <lane id=":1553949789_7_0" index="0" disallow="tram rail_urban rail rail_electric rail_fast ship" speed="22.22" length="14.65" shape="2354.53,3335.51 2356.94,3338.31 2359.20,3341.15 2361.37,3344.06 2363.51,3347.07"/>
    </edge>
    <edge id=":1553949789_8" function="internal">
        <lane id=":1553949789_8_0" index="0" disallow="tram rail_urban rail rail_electric rail_fast ship" speed="3.65" length="2.34" shape="2354.53,3335.51 2354.74,3336.94 2354.41,3337.77"/>
    </edge>
    <edge id=":1553949789_11" function="internal">
        <lane id=":1553949789_11_0" index="0" disallow="tram rail_urban rail rail_electric rail_fast ship" speed="3.65" length="2.34" shape="2354.41,3337.77 2353.54,3338.01 2352.15,3337.65"/>
    </edge>
    <edge id=":2471117984_0" function="internal">
        <lane id=":2471117984_0_0" index="0" disallow="tram rail_urban rail rail_electric rail_fast ship" speed="3.65" length="4.67" shape="2363.08,2130.33 2363.59,2128.98 2364.28,2128.41 2365.15,2128.62 2366.20,2129.61"/>
    </edge>
    <edge id=":4486134513_0" function="internal">
        <lane id=":4486134513_0_0" index="0" disallow="tram rail_urban rail rail_electric rail_fast ship" speed="5.56" length="17.99" shape="2527.06,3296.25 2523.42,3298.31 2518.96,3300.00 2514.33,3301.27 2510.17,3302.08"/>
    </edge>
    <edge id=":4486134513_1" function="internal">
        <lane id=":4486134513_1_0" index="0" disallow="tram rail_urban rail rail_electric rail_fast ship" speed="9.62" length="17.32" shape="2527.06,3296.25 2523.72,3297.79 2520.00,3297.75 2515.90,3296.13 2511.40,3292.93"/>
    </edge>
    <edge id=":4486134513_2" function="internal">
        <lane id=":4486134513_2_0" index="0" disallow="tram rail_urban rail rail_electric rail_fast ship" speed="3.65" length="4.67" shape="2527.06,3296.25 2525.61,3296.32 2524.82,3295.92 2524.66,3295.04 2525.15,3293.68"/>
    </edge>
    <edge id=":4486134513_3" function="internal">
        <lane id=":4486134513_3_0" index="0" disallow="tram rail_urban rail rail_electric rail_fast ship" speed="8.40" length="13.01" shape="2513.48,3290.49 2517.00,3293.06 2520.11,3294.45 2522.83,3294.66 2525.15,3293.68"/>
    </edge>
    <edge id=":4486134513_4" function="internal">
        <lane id=":4486134513_4_0" index="0" disallow="tram rail_urban rail rail_electric rail_fast ship" speed="7.39" length="18.50" shape="2513.48,3290.49 2517.43,3294.75 2518.19,3298.10 2515.77,3300.55 2510.17,3302.08"/>
    </edge>
    <edge id=":4486134513_5" function="internal">
        <lane id=":4486134513_5_0" index="0" disallow="tram rail_urban rail rail_electric rail_fast ship" speed="3.65" length="4.67" shape="2513.48,3290.49 2513.87,3291.88 2513.66,3292.75 2512.84,3293.10 2511.40,3292.93"/>
    </edge>
    <edge id=":4486134513_6" function="internal">
        <lane id=":4486134513_6_0" index="0" disallow="tram rail_urban rail rail_electric rail_fast ship" speed="5.51" length="9.55" shape="2509.69,3298.91 2512.59,3298.12 2513.84,3296.86 2513.44,3295.13 2511.40,3292.93"/>
    </edge>
    <edge id=":4486134513_7" function="internal">
        <lane id=":4486134513_7_0" index="0" disallow="tram rail_urban rail rail_electric rail_fast ship" speed="5.56" length="16.45" shape="2509.69,3298.91 2513.63,3298.20 2517.77,3297.13 2521.74,3295.65 2525.15,3293.68"/>
    </edge>
    <edge id=":4486134513_8" function="internal">
        <lane id=":4486134513_8_0" index="0" disallow="tram rail_urban rail rail_electric rail_fast ship" speed="3.65" length="4.67" shape="2509.69,3298.91 2511.00,3299.53 2511.51,3300.26 2511.23,3301.11 2510.17,3302.08"/>
    </edge>
    <edge id=":4486134560_0" function="internal">
        <lane id=":4486134560_0_0" index="0" disallow="tram rail_urban rail rail_electric rail_fast ship" speed="9.75" length="11.12" shape="2210.03,2695.56 2208.81,2692.67 2207.22,2690.36 2205.26,2688.65 2202.93,2687.53"/>
    </edge>
    <edge id=":4486134560_1" function="internal">
        <lane id=":4486134560_1_0" index="0" disallow="tram rail_urban rail rail_electric rail_fast ship" speed="9.72" length="15.96" shape="2210.03,2695.56 2209.35,2691.77 2209.44,2687.72 2210.01,2683.64 2210.75,2679.77"/>
    </edge>
    <edge id=":4486134560_2" function="internal">
        <lane id=":4486134560_2_0" index="0" disallow="tram rail_urban rail rail_electric rail_fast ship" speed="7.89" length="4.23" shape="2210.03,2695.56 2209.56,2691.82 2209.76,2691.39"/>
    </edge>
    <edge id=":4486134560_3" function="internal">
        <lane id=":4486134560_3_0" index="0" disallow="tram rail_urban rail rail_electric rail_fast ship" speed="3.68" length="1.87" shape="2210.03,2695.56 2210.72,2694.25 2211.06,2694.04"/>
    </edge>
    <edge id=":4486134560_16" function="internal">
        <lane id=":4486134560_16_0" index="0" disallow="tram rail_urban rail rail_electric rail_fast ship" speed="7.89" length="11.45" shape="2209.76,2691.39 2210.88,2688.92 2213.97,2686.88 2218.85,2685.68"/>
    </edge>
    <edge id=":4486134560_17" function="internal">
        <lane id=":4486134560_17_0" index="0" disallow="tram rail_urban rail rail_electric rail_fast ship" speed="3.68" length="2.91" shape="2211.06,2694.04 2211.50,2693.76 2212.35,2694.08 2213.29,2695.22"/>
    </edge>
    <edge id=":4486134560_4" function="internal">
        <lane id=":4486134560_4_0" index="0" disallow="tram rail_urban rail rail_electric rail_fast ship" speed="6.52" length="10.32" shape="2219.28,2688.86 2216.00,2689.64 2213.92,2690.96 2213.01,2692.83 2213.29,2695.22"/>
    </edge>
    <edge id=":4486134560_5" function="internal">
        <lane id=":4486134560_5_0" index="0" disallow="tram rail_urban rail rail_electric rail_fast ship" speed="9.72" length="16.51" shape="2219.28,2688.86 2215.30,2689.15 2211.03,2689.03 2206.79,2688.49 2202.93,2687.53"/>
    </edge>
    <edge id=":4486134560_6" function="internal">
        <lane id=":4486134560_6_0" index="0" disallow="tram rail_urban rail rail_electric rail_fast ship" speed="5.56" length="15.63" shape="2219.28,2688.86 2214.76,2688.82 2211.83,2687.29 2210.50,2684.28 2210.75,2679.77"/>
    </edge>
    <edge id=":4486134560_7" function="internal">
        <lane id=":4486134560_7_0" index="0" disallow="tram rail_urban rail rail_electric rail_fast ship" speed="3.65" length="4.67" shape="2219.28,2688.86 2217.98,2688.22 2217.48,2687.48 2217.77,2686.64 2218.85,2685.68"/>
    </edge>
    <edge id=":4486134560_8" function="internal">
        <lane id=":4486134560_8_0" index="0" disallow="tram rail_urban rail rail_electric rail_fast ship" speed="5.56" length="9.10" shape="2213.89,2680.39 2213.74,2683.02 2214.52,2684.78 2216.22,2685.66 2218.85,2685.68"/>
    </edge>
    <edge id=":4486134560_9" function="internal">
        <lane id=":4486134560_9_0" index="0" disallow="tram rail_urban rail rail_electric rail_fast ship" speed="9.72" length="15.00" shape="2213.89,2680.39 2213.16,2684.11 2212.64,2687.87 2212.59,2691.59 2213.29,2695.22"/>
    </edge>
    <edge id=":4486134560_10" function="internal">
        <lane id=":4486134560_10_0" index="0" disallow="tram rail_urban rail rail_electric rail_fast ship" speed="7.96" length="15.35" shape="2213.89,2680.39 2212.45,2684.62 2210.14,2687.22 2206.97,2688.19 2202.93,2687.53"/>
    </edge>
    <edge id=":4486134560_11" function="internal">
        <lane id=":4486134560_11_0" index="0" disallow="tram rail_urban rail rail_electric rail_fast ship" speed="3.65" length="4.67" shape="2213.89,2680.39 2212.87,2681.41 2212.01,2681.65 2211.30,2681.10 2210.75,2679.77"/>
    </edge>
    <edge id=":4486134560_12" function="internal">
        <lane id=":4486134560_12_0" index="0" disallow="tram rail_urban rail rail_electric rail_fast ship" speed="6.46" length="9.73" shape="2203.93,2684.49 2206.43,2684.88 2208.39,2684.22 2209.83,2682.52 2210.75,2679.77"/>
    </edge>
    <edge id=":4486134560_13" function="internal">
        <lane id=":4486134560_13_0" index="0" disallow="tram rail_urban rail rail_electric rail_fast ship" speed="9.72" length="15.09" shape="2203.93,2684.49 2207.57,2685.43 2211.31,2685.92 2215.10,2686.00 2218.85,2685.68"/>
    </edge>
    <edge id=":4486134560_14" function="internal">
        <lane id=":4486134560_14_0" index="0" disallow="tram rail_urban rail rail_electric rail_fast ship" speed="11.17" length="14.78" shape="2203.93,2684.49 2206.98,2685.97 2209.55,2688.26 2211.66,2691.34 2213.29,2695.22"/>
    </edge>
    <edge id=":4486134560_15" function="internal">
        <lane id=":4486134560_15_0" index="0" disallow="tram rail_urban rail rail_electric rail_fast ship" speed="3.65" length="2.54" shape="2203.93,2684.49 2204.82,2685.63 2204.95,2686.51 2204.80,2686.66"/>
    </edge>
    <edge id=":4486134560_18" function="internal">
        <lane id=":4486134560_18_0" index="0" disallow="tram rail_urban rail rail_electric rail_fast ship" speed="3.65" length="2.13" shape="2204.80,2686.66 2204.32,2687.15 2202.93,2687.53"/>
    </edge>
    <edge id=":5130233478_0" function="internal">
        <lane id=":5130233478_0_0" index="0" disallow="tram rail_urban rail rail_electric rail_fast ship" speed="22.22" length="14.00" shape="2128.49,2981.38 2123.71,2968.23"/>
    </edge>
    <edge id=":5130233478_1" function="internal">
        <lane id=":5130233478_1_0" index="0" disallow="tram rail_urban rail rail_electric rail_fast ship" speed="8.01" length="5.66" shape="2128.49,2981.38 2127.79,2977.63 2128.17,2975.83"/>
    </edge>
    <edge id=":5130233478_2" function="internal">
        <lane id=":5130233478_2_0" index="0" disallow="tram rail_urban rail rail_electric rail_fast ship" speed="3.65" length="2.34" shape="2128.49,2981.38 2128.86,2979.99 2129.49,2979.36"/>
    </edge>
    <edge id=":5130233478_9" function="internal">
        <lane id=":5130233478_9_0" index="0" disallow="tram rail_urban rail rail_electric rail_fast ship" speed="8.01" length="8.31" shape="2128.17,2975.83 2128.45,2974.53 2130.46,2972.09 2133.83,2970.30"/>
    </edge>
    <edge id=":5130233478_10" function="internal">
        <lane id=":5130233478_10_0" index="0" disallow="tram rail_urban rail rail_electric rail_fast ship" speed="3.65" length="2.34" shape="2129.49,2979.36 2130.38,2979.48 2131.52,2980.36"/>
    </edge>
    <edge id=":5130233478_3" function="internal">
        <lane id=":5130233478_3_0" index="0" disallow="tram rail_urban rail rail_electric rail_fast ship" speed="6.51" length="8.89" shape="2134.92,2973.31 2132.78,2974.45 2131.49,2976.00 2131.08,2977.97 2131.52,2980.36"/>
    </edge>
    <edge id=":5130233478_4" function="internal">
        <lane id=":5130233478_4_0" index="0" disallow="tram rail_urban rail rail_electric rail_fast ship" speed="8.01" length="13.97" shape="2134.92,2973.31 2131.19,2974.09 2128.07,2973.50 2125.58,2971.55 2123.71,2968.23"/>
    </edge>
    <edge id=":5130233478_5" function="internal">
        <lane id=":5130233478_5_0" index="0" disallow="tram rail_urban rail rail_electric rail_fast ship" speed="3.65" length="4.67" shape="2134.92,2973.31 2133.52,2972.96 2132.87,2972.35 2132.98,2971.46 2133.83,2970.30"/>
    </edge>
    <edge id=":5130233478_6" function="internal">
        <lane id=":5130233478_6_0" index="0" disallow="tram rail_urban rail rail_electric rail_fast ship" speed="6.52" length="8.90" shape="2126.69,2967.06 2127.88,2969.18 2129.47,2970.42 2131.45,2970.79 2133.83,2970.30"/>
    </edge>
    <edge id=":5130233478_7" function="internal">
        <lane id=":5130233478_7_0" index="0" disallow="tram rail_urban rail rail_electric rail_fast ship" speed="22.22" length="14.15" shape="2126.69,2967.06 2131.52,2980.36"/>
    </edge>
    <edge id=":5130233478_8" function="internal">
        <lane id=":5130233478_8_0" index="0" disallow="tram rail_urban rail rail_electric rail_fast ship" speed="3.65" length="2.34" shape="2126.69,2967.06 2126.38,2968.47 2125.78,2969.13"/>
    </edge>
    <edge id=":5130233478_11" function="internal">
        <lane id=":5130233478_11_0" index="0" disallow="tram rail_urban rail rail_electric rail_fast ship" speed="3.65" length="2.34" shape="2125.78,2969.13 2124.89,2969.05 2123.71,2968.23"/>
    </edge>
    <edge id=":5130333344_0" function="internal">
        <lane id=":5130333344_0_0" index="0" disallow="tram rail_urban rail rail_electric rail_fast ship" speed="7.17" length="9.78" shape="2291.43,2934.29 2289.99,2932.32 2288.12,2931.18 2285.80,2930.87 2283.04,2931.39"/>
    </edge>
    <edge id=":5130333344_1" function="internal">
        <lane id=":5130333344_1_0" index="0" disallow="tram rail_urban rail rail_electric rail_fast ship" speed="13.89" length="14.38" shape="2291.43,2934.29 2285.24,2921.31"/>
    </edge>
    <edge id=":5130333344_2" function="internal">
        <lane id=":5130333344_2_0" index="0" disallow="tram rail_urban rail rail_electric rail_fast ship" speed="3.65" length="2.34" shape="2291.43,2934.29 2291.60,2932.85 2292.13,2932.13"/>
    </edge>
    <edge id=":5130333344_9" function="internal">
        <lane id=":5130333344_9_0" index="0" disallow="tram rail_urban rail rail_electric rail_fast ship" speed="3.65" length="2.34" shape="2292.13,2932.13 2293.02,2932.13 2294.28,2932.83"/>
    </edge>
    <edge id=":5130333344_3" function="internal">
        <lane id=":5130333344_3_0" index="0" disallow="tram rail_urban rail rail_electric rail_fast ship" speed="13.89" length="14.21" shape="2288.16,2920.00 2294.28,2932.83"/>
    </edge>
    <edge id=":5130333344_4" function="internal">
        <lane id=":5130333344_4_0" index="0" disallow="tram rail_urban rail rail_electric rail_fast ship" speed="7.81" length="5.73" shape="2288.16,2920.00 2289.28,2923.93 2289.04,2925.55"/>
    </edge>
    <edge id=":5130333344_5" function="internal">
        <lane id=":5130333344_5_0" index="0" disallow="tram rail_urban rail rail_electric rail_fast ship" speed="3.65" length="2.34" shape="2288.16,2920.00 2287.92,2921.42 2287.36,2922.11"/>
    </edge>
    <edge id=":5130333344_10" function="internal">
        <lane id=":5130333344_10_0" index="0" disallow="tram rail_urban rail rail_electric rail_fast ship" speed="7.81" length="8.92" shape="2289.04,2925.55 2288.80,2927.13 2286.72,2929.62 2283.04,2931.39"/>
    </edge>
    <edge id=":5130333344_11" function="internal">
        <lane id=":5130333344_11_0" index="0" disallow="tram rail_urban rail rail_electric rail_fast ship" speed="3.65" length="2.34" shape="2287.36,2922.11 2286.46,2922.08 2285.24,2921.31"/>
    </edge>
    <edge id=":5130333344_6" function="internal">
        <lane id=":5130333344_6_0" index="0" disallow="tram rail_urban rail rail_electric rail_fast ship" speed="6.27" length="9.04" shape="2282.08,2928.34 2284.35,2927.25 2285.64,2925.71 2285.93,2923.73 2285.24,2921.31"/>
    </edge>
    <edge id=":5130333344_7" function="internal">
        <lane id=":5130333344_7_0" index="0" disallow="tram rail_urban rail rail_electric rail_fast ship" speed="8.57" length="14.33" shape="2282.08,2928.34 2286.04,2927.61 2289.40,2928.12 2292.14,2929.86 2294.28,2932.83"/>
    </edge>
    <edge id=":5130333344_8" function="internal">
        <lane id=":5130333344_8_0" index="0" disallow="tram rail_urban rail rail_electric rail_fast ship" speed="3.65" length="4.67" shape="2282.08,2928.34 2283.47,2928.74 2284.09,2929.38 2283.95,2930.27 2283.04,2931.39"/>
    </edge>
    <edge id=":5130333345_0" function="internal">
        <lane id=":5130333345_0_0" index="0" disallow="tram rail_urban rail rail_electric rail_fast ship" speed="6.48" length="9.13" shape="2310.10,2972.29 2308.85,2970.14 2307.20,2968.93 2305.15,2968.67 2302.71,2969.35"/>
    </edge>
    <edge id=":5130333345_1" function="internal">
        <lane id=":5130333345_1_0" index="0" disallow="tram rail_urban rail rail_electric rail_fast ship" speed="13.89" length="14.54" shape="2310.10,2972.29 2308.69,2968.89 2307.24,2965.60 2305.71,2962.35 2304.07,2959.06"/>
    </edge>
    <edge id=":5130333345_2" function="internal">
        <lane id=":5130333345_2_0" index="0" disallow="tram rail_urban rail rail_electric rail_fast ship" speed="3.65" length="2.34" shape="2310.10,2972.29 2310.39,2970.88 2310.99,2970.21"/>
    </edge>
    <edge id=":5130333345_9" function="internal">
        <lane id=":5130333345_9_0" index="0" disallow="tram rail_urban rail rail_electric rail_fast ship" speed="3.65" length="2.34" shape="2310.99,2970.21 2311.88,2970.28 2313.07,2971.10"/>
    </edge>
    <edge id=":5130333345_3" function="internal">
        <lane id=":5130333345_3_0" index="0" disallow="tram rail_urban rail rail_electric rail_fast ship" speed="13.89" length="14.83" shape="2306.92,2957.60 2308.58,2960.94 2310.15,2964.28 2311.64,2967.66 2313.07,2971.10"/>
    </edge>
    <edge id=":5130333345_4" function="internal">
        <lane id=":5130333345_4_0" index="0" disallow="tram rail_urban rail rail_electric rail_fast ship" speed="7.89" length="6.15" shape="2306.92,2957.60 2308.21,2961.38 2308.03,2963.53"/>
    </edge>
    <edge id=":5130333345_5" function="internal">
        <lane id=":5130333345_5_0" index="0" disallow="tram rail_urban rail rail_electric rail_fast ship" speed="3.65" length="2.34" shape="2306.92,2957.60 2306.76,2959.04 2306.23,2959.76"/>
    </edge>
    <edge id=":5130333345_10" function="internal">
        <lane id=":5130333345_10_0" index="0" disallow="tram rail_urban rail rail_electric rail_fast ship" speed="7.89" length="8.29" shape="2308.03,2963.53 2307.94,2964.60 2306.11,2967.25 2302.71,2969.35"/>
    </edge>
    <edge id=":5130333345_11" function="internal">
        <lane id=":5130333345_11_0" index="0" disallow="tram rail_urban rail rail_electric rail_fast ship" speed="3.65" length="2.34" shape="2306.23,2959.76 2305.33,2959.76 2304.07,2959.06"/>
    </edge>
    <edge id=":5130333345_6" function="internal">
        <lane id=":5130333345_6_0" index="0" disallow="tram rail_urban rail rail_electric rail_fast ship" speed="6.37" length="9.04" shape="2301.43,2966.41 2303.56,2965.10 2304.71,2963.44 2304.88,2961.42 2304.07,2959.06"/>
    </edge>
    <edge id=":5130333345_7" function="internal">
        <lane id=":5130333345_7_0" index="0" disallow="tram rail_urban rail rail_electric rail_fast ship" speed="7.98" length="14.39" shape="2301.43,2966.41 2305.28,2965.35 2308.49,2965.78 2311.09,2967.70 2313.07,2971.10"/>
    </edge>
    <edge id=":5130333345_8" function="internal">