<?xml version="1.0" encoding="UTF-8"?>

<!-- generated on Thu Mar 12 18:27:21 2020 by Eclipse SUMO polyconvert Version 1.4.0
<configuration xmlns:xsi="http://www.w3.org/2001/XMLSchema-instance" xsi:noNamespaceSchemaLocation="http://sumo.dlr.de/xsd/polyconvertConfiguration.xsd">

    <input>
        <net-file value="osmfiles/netfiles/sebudi_edit2.net.xml"/>
        <osm-files value="osmfiles/sebudi.osm"/>
        <type-file value="/usr/share/sumo/data/typemap/osmPolyconvert.typ.xml"/>
    </input>

    <output>
        <output-file value="osmfiles/polyfiles/50.poly.xml"/>
    </output>

    <processing>
        <poi-layer-offset value="5"/>
    </processing>

</configuration>
-->

<additional xmlns:xsi="http://www.w3.org/2001/XMLSchema-instance" xsi:noNamespaceSchemaLocation="http://sumo.dlr.de/xsd/additional_file.xsd">
    <location netOffset="-329165.89,930795.17" convBoundary="-0.00,-0.00,3234.80,4455.53" origBoundary="115.448347,-8.417527,115.477864,-8.377353" projParameter="+proj=utm +zone=50 +ellps=WGS84 +datum=WGS84 +units=m +no_defs"/>

    <poly id="527278702" type="building" color="255,230,230" fill="1" layer="-1.00" shape="2312.022633,2835.821762 2321.194425,2830.714934 2319.258507,2827.278990 2310.086758,2832.374758 2312.022633,2835.821762"/>
    <poly id="527278703" type="building" color="255,230,230" fill="1" layer="-1.00" shape="2304.067717,2867.774353 2318.874758,2860.731997 2314.483052,2851.613035 2299.675970,2858.666448 2304.067717,2867.774353"/>
    <poly id="527278704" type="building" color="255,230,230" fill="1" layer="-1.00" shape="2295.127801,2850.133018 2304.636256,2846.244034 2301.712265,2839.187831 2292.203811,2843.076814 2295.127801,2850.133018"/>
    <poly id="527278705" type="building" color="255,230,230" fill="1" layer="-1.00" shape="2212.669708,2749.304027 2223.753732,2745.233202 2221.138124,2738.178193 2210.043089,2742.248974 2212.669708,2749.304027"/>
    <poly id="527762114" type="building" color="255,230,230" fill="1" layer="-1.00" shape="2110.695603,2727.771554 2121.476633,2727.968481 2121.578294,2721.676108 2110.797222,2721.490240 2110.695603,2727.771554"/>
    <poly id="527762116" type="building" color="255,230,230" fill="1" layer="-1.00" shape="2105.042358,2737.138868 2110.510935,2735.578735 2106.425056,2721.484227 2100.956479,2723.044360 2105.042358,2737.138868"/>
    <poly id="527762118" type="building" color="255,230,230" fill="1" layer="-1.00" shape="2113.179039,2734.826058 2122.188158,2734.717463 2122.120047,2729.596718 2113.110929,2729.705312 2113.179039,2734.826058"/>
    <poly id="527762120" type="building" color="255,230,230" fill="1" layer="-1.00" shape="2056.507829,2723.014536 2067.446973,2719.385559 2065.084645,2712.342584 2054.134489,2715.971517 2056.507829,2723.014536"/>
    <poly id="527762122" type="building" color="255,230,230" fill="1" layer="-1.00" shape="2060.761483,2730.805876 2070.227188,2726.584996 2068.229104,2722.153452 2058.752386,2726.374288 2060.761483,2730.805876"/>
    <poly id="527762124" type="building" color="255,230,230" fill="1" layer="-1.00" shape="2064.409556,2741.381807 2072.096440,2738.624872 2069.416074,2731.237816 2061.718178,2733.994706 2064.409556,2741.381807"/>
    <poly id="527762126" type="building" color="255,230,230" fill="1" layer="-1.00" shape="2065.289348,2817.838545 2072.533438,2815.666025 2069.760686,2806.553350 2062.516597,2808.725870 2065.289348,2817.838545"/>
    <poly id="527762156" type="building" color="255,230,230" fill="1" layer="-1.00" shape="2319.731688,2903.634517 2324.886762,2900.569062 2321.067825,2894.250348 2315.923765,2897.315846 2319.731688,2903.634517"/>
    <poly id="527762157" type="building" color="255,230,230" fill="1" layer="-1.00" shape="2300.049253,2915.446559 2313.069107,2909.193505 2310.042715,2902.977414 2297.022861,2909.230467 2300.049253,2915.446559"/>
    <poly id="527762158" type="building" color="255,230,230" fill="1" layer="-1.00" shape="2285.299640,2907.758094 2291.662691,2905.582100 2290.323151,2901.717166 2283.960100,2903.893159 2285.299640,2907.758094"/>
    <poly id="527762159" type="building" color="255,230,230" fill="1" layer="-1.00" shape="2295.353752,2905.154121 2303.789520,2902.400063 2302.091383,2897.295085 2293.666628,2900.049185 2295.353752,2905.154121"/>
    <poly id="527762160" type="building" color="255,230,230" fill="1" layer="-1.00" shape="2287.993928,2900.292487 2303.665657,2894.624864 2301.235647,2887.979783 2285.563920,2893.647405 2287.993928,2900.292487"/>
    <poly id="527762161" type="building" color="255,230,230" fill="1" layer="-1.00" shape="2316.709110,2885.142575 2322.965864,2881.981882 2317.391614,2871.099874 2311.134861,2874.260567 2316.709110,2885.142575"/>
    <poly id="527762162" type="building" color="255,230,230" fill="1" layer="-1.00" shape="2309.893557,2890.391304 2314.855676,2888.795989 2311.939096,2879.837610 2306.965966,2881.432881 2309.893557,2890.391304"/>
    <poly id="527762163" type="building" color="255,230,230" fill="1" layer="-1.00" shape="2292.760832,2889.450804 2305.335636,2884.357249 2302.619204,2877.733170 2290.044445,2882.815665 2292.760832,2889.450804"/>
    <poly id="527762164" type="building" color="255,230,230" fill="1" layer="-1.00" shape="2291.340606,2875.211893 2299.765357,2872.457795 2297.272766,2864.916663 2288.848017,2867.670761 2291.340606,2875.211893"/>
    <poly id="527762165" type="building" color="255,230,230" fill="1" layer="-1.00" shape="2275.947238,2882.926575 2289.257020,2878.576867 2286.601091,2870.559545 2273.291311,2874.909252 2275.947238,2882.926575"/>
    <poly id="527762166" type="building" color="255,230,230" fill="1" layer="-1.00" shape="2260.858554,2852.056394 2264.565456,2850.389833 2262.370709,2845.548339 2258.663850,2847.203840 2260.858554,2852.056394"/>
    <poly id="527762167" type="building" color="255,230,230" fill="1" layer="-1.00" shape="2275.758631,2855.045238 2283.456526,2852.288308 2281.571433,2847.116243 2273.884551,2849.873216 2275.758631,2855.045238"/>
    <poly id="527762168" type="building" color="255,230,230" fill="1" layer="-1.00" shape="2278.245553,2861.214991 2284.611445,2858.309094 2282.962338,2854.752614 2276.596447,2857.658511 2278.245553,2861.214991"/>
    <poly id="527762169" type="building" color="255,230,230" fill="1" layer="-1.00" shape="2268.485348,2864.704853 2276.326413,2861.948482 2274.724982,2857.463202 2266.883917,2860.219573 2268.485348,2864.704853"/>
    <poly id="527762170" type="building" color="255,230,230" fill="1" layer="-1.00" shape="2265.587113,2851.046319 2273.129706,2848.576328 2271.344507,2843.205584 2263.801958,2845.664516 2265.587113,2851.046319"/>
    <poly id="527762171" type="building" color="255,230,230" fill="1" layer="-1.00" shape="2274.317234,2846.236380 2282.452194,2844.365902 2281.195615,2838.997221 2273.060656,2840.867698 2274.317234,2846.236380"/>
    <poly id="527762172" type="building" color="255,230,230" fill="1" layer="-1.00" shape="2271.828588,2840.508993 2278.788615,2837.749186 2276.138097,2831.169599 2269.189083,2833.929448 2271.828588,2840.508993"/>
    <poly id="527762173" type="building" color="255,230,230" fill="1" layer="-1.00" shape="2272.306893,2830.822875 2277.634720,2828.642847 2275.801803,2824.211961 2270.473977,2826.391988 2272.306893,2830.822875"/>
    <poly id="527762174" type="building" color="255,230,230" fill="1" layer="-1.00" shape="2264.657199,2824.046837 2271.162848,2822.015176 2269.977149,2818.239315 2263.471501,2820.270976 2264.657199,2824.046837"/>
    <poly id="527762175" type="building" color="255,230,230" fill="1" layer="-1.00" shape="2261.898731,2811.262536 2270.335607,2808.220949 2268.842713,2804.145288 2260.405837,2807.186874 2261.898731,2811.262536"/>
    <poly id="527762176" type="building" color="255,230,230" fill="1" layer="-1.00" shape="2255.429151,2804.048725 2261.936479,2801.585758 2260.312078,2797.343693 2253.804707,2799.817719 2255.429151,2804.048725"/>
    <poly id="527762177" type="building" color="255,230,230" fill="1" layer="-1.00" shape="2265.189863,2800.426159 2273.769387,2797.517840 2271.940053,2792.169042 2263.360573,2795.066301 2265.189863,2800.426159"/>
    <poly id="527762178" type="building" color="255,230,230" fill="1" layer="-1.00" shape="2256.550220,2782.045005 2263.243859,2779.815012 2260.903003,2772.904850 2254.209322,2775.145902 2256.550220,2782.045005"/>
    <poly id="527762179" type="building" color="255,230,230" fill="1" layer="-1.00" shape="2251.888628,2765.891237 2258.395391,2763.572041 2256.880906,2759.385701 2250.374100,2761.715956 2251.888628,2765.891237"/>
    <poly id="527762180" type="building" color="255,230,230" fill="1" layer="-1.00" shape="2250.086944,2773.216553 2257.926831,2770.758786 2256.534221,2766.384913 2248.694335,2768.842679 2250.086944,2773.216553"/>
    <poly id="527762181" type="building" color="255,230,230" fill="1" layer="-1.00" shape="2241.349412,2779.928664 2248.298420,2777.168821 2246.149672,2771.829834 2239.200665,2774.589677 2241.349412,2779.928664"/>
    <poly id="527762182" type="building" color="255,230,230" fill="1" layer="-1.00" shape="2218.535988,2758.716302 2227.417432,2754.636882 2224.490441,2748.354812 2215.609040,2752.423173 2218.535988,2758.716302"/>
    <poly id="527762183" type="building" color="255,230,230" fill="1" layer="-1.00" shape="2243.395576,2746.636963 2250.941002,2743.437073 2248.463552,2737.665489 2240.918171,2740.854319 2243.395576,2746.636963"/>
    <poly id="527762184" type="building" color="255,230,230" fill="1" layer="-1.00" shape="2243.959379,2754.557653 2251.351186,2751.213392 2249.036125,2746.161299 2241.644319,2749.505559 2243.959379,2754.557653"/>
    <poly id="527762185" type="building" color="255,230,230" fill="1" layer="-1.00" shape="2232.816659,2731.333791 2243.474021,2726.531381 2241.388378,2721.955734 2230.731017,2726.758144 2232.816659,2731.333791"/>
    <poly id="527762186" type="building" color="255,230,230" fill="1" layer="-1.00" shape="2240.481917,2736.937609 2247.584538,2734.322138 2245.600815,2729.028031 2238.509207,2731.643545 2240.481917,2736.937609"/>
    <poly id="527762187" type="building" color="255,230,230" fill="1" layer="-1.00" shape="2228.151116,2716.197462 2236.737446,2711.541803 2234.101980,2706.753883 2225.515650,2711.409541 2228.151116,2716.197462"/>
    <poly id="527762188" type="building" color="255,230,230" fill="1" layer="-1.00" shape="2233.147796,2722.675616 2240.250416,2720.060146 2238.037883,2714.134764 2230.935264,2716.750234 2233.147796,2722.675616"/>
    <poly id="527762189" type="building" color="255,230,230" fill="1" layer="-1.00" shape="2214.277258,2738.107183 2220.810922,2734.538392 2217.880093,2729.240588 2211.335373,2732.820395 2214.277258,2738.107183"/>
    <poly id="527762190" type="building" color="255,230,230" fill="1" layer="-1.00" shape="2210.193680,2740.347354 2214.277258,2738.107183 2211.335373,2732.820395 2207.251838,2735.049506 2210.193680,2740.347354"/>
    <poly id="527762191" type="building" color="255,230,230" fill="1" layer="-1.00" shape="2216.942879,2788.791505 2223.151738,2786.614922 2221.049289,2780.701028 2214.840431,2782.877610 2216.942879,2788.791505"/>
    <poly id="527762192" type="building" color="255,230,230" fill="1" layer="-1.00" shape="2210.884049,2789.210236 2215.021099,2787.379469 2213.121466,2783.114208 2208.984416,2784.944976 2210.884049,2789.210236"/>
    <poly id="527762193" type="building" color="255,230,230" fill="1" layer="-1.00" shape="2216.154050,2801.849513 2224.727841,2800.412074 2223.758771,2794.745909 2215.195995,2796.183390 2216.154050,2801.849513"/>
    <poly id="527762194" type="building" color="255,230,230" fill="1" layer="-1.00" shape="2205.602212,2819.116214 2212.107864,2817.084562 2210.562974,2812.223481 2204.057322,2814.255133 2205.602212,2819.116214"/>
    <poly id="527762195" type="building" color="255,230,230" fill="1" layer="-1.00" shape="2197.276524,2833.173332 2204.512018,2833.201566 2204.534372,2827.472913 2197.298879,2827.444678 2197.276524,2833.173332"/>
    <poly id="527762196" type="building" color="255,230,230" fill="1" layer="-1.00" shape="2223.895519,2824.617732 2233.955314,2820.553965 2230.606104,2812.401220 2220.546310,2816.464987 2223.895519,2824.617732"/>
    <poly id="527762197" type="building" color="255,230,230" fill="1" layer="-1.00" shape="2209.679973,2832.480756 2216.924054,2830.308212 2215.347504,2825.093109 2208.092411,2827.265610 2209.679973,2832.480756"/>
    <poly id="527762198" type="building" color="255,230,230" fill="1" layer="-1.00" shape="2229.015922,2836.084132 2237.741473,2832.446472 2235.024365,2825.999333 2226.298816,2829.636992 2229.015922,2836.084132"/>
    <poly id="527762199" type="building" color="255,230,230" fill="1" layer="-1.00" shape="2219.998199,2838.393529 2226.207626,2836.073175 2224.485361,2831.510005 2218.264879,2833.841375 2219.998199,2838.393529"/>
    <poly id="527762200" type="building" color="255,230,230" fill="1" layer="-1.00" shape="2209.941246,2841.727388 2218.079663,2838.972188 2216.086822,2833.191434 2207.959419,2835.946677 2209.941246,2841.727388"/>
    <poly id="527762201" type="building" color="255,230,230" fill="1" layer="-1.00" shape="2187.763161,2846.783440 2198.414816,2843.451906 2196.184612,2836.409459 2185.532959,2839.740993 2187.763161,2846.783440"/>
    <poly id="527762202" type="building" color="255,230,230" fill="1" layer="-1.00" shape="2231.486786,2846.367902 2239.175397,2843.168570 2236.349238,2836.444523 2228.660628,2839.643854 2231.486786,2846.367902"/>
    <poly id="527762203" type="building" color="255,230,230" fill="1" layer="-1.00" shape="2215.958832,2851.881228 2225.719602,2848.247609 2223.212561,2841.591161 2213.451791,2845.224780 2215.958832,2851.881228"/>
    <poly id="527762204" type="building" color="255,230,230" fill="1" layer="-1.00" shape="2191.419443,2858.089301 2199.401396,2855.919638 2197.066629,2847.450128 2189.084677,2849.619790 2191.419443,2858.089301"/>
    <poly id="527762205" type="building" color="255,230,230" fill="1" layer="-1.00" shape="2212.389232,2894.567430 2231.182210,2887.739720 2224.033314,2868.335858 2205.251355,2875.163607 2212.389232,2894.567430"/>
    <poly id="527762206" type="building" color="255,230,230" fill="1" layer="-1.00" shape="2211.083212,2927.275876 2223.514828,2922.192842 2219.674254,2912.954365 2207.253609,2918.048501 2211.083212,2927.275876"/>
    <poly id="527762207" type="building" color="255,230,230" fill="1" layer="-1.00" shape="2147.183219,2953.148697 2155.021376,2951.144369 2153.274619,2944.391350 2145.436462,2946.395678 2147.183219,2953.148697"/>
    <poly id="527762208" type="building" color="255,230,230" fill="1" layer="-1.00" shape="2144.852640,2943.606444 2152.547714,2941.579438 2149.920950,2931.737427 2142.236891,2933.764474 2144.852640,2943.606444"/>
    <poly id="527762209" type="building" color="255,230,230" fill="1" layer="-1.00" shape="2117.261364,2936.011566 2123.426112,2933.856939 2121.095112,2927.245408 2114.930364,2929.400035 2117.261364,2936.011566"/>
    <poly id="527762210" type="building" color="255,230,230" fill="1" layer="-1.00" shape="2094.937799,2941.642099 2103.072790,2939.771651 2101.848747,2934.535800 2093.713714,2936.417307 2094.937799,2941.642099"/>
    <poly id="527762211" type="building" color="255,230,230" fill="1" layer="-1.00" shape="2093.672885,2963.800098 2101.059603,2961.771897 2099.365456,2955.649463 2091.967726,2957.677620 2093.672885,2963.800098"/>
    <poly id="527762212" type="building" color="255,230,230" fill="1" layer="-1.00" shape="2100.699261,2977.906082 2114.311024,2972.385307 2110.776367,2963.778394 2097.164606,2969.299168 2100.699261,2977.906082"/>
    <poly id="527762213" type="building" color="255,230,230" fill="1" layer="-1.00" shape="2103.462323,2989.507066 2111.903264,2985.436999 2108.516182,2978.522743 2100.086212,2982.603912 2103.462323,2989.507066"/>
    <poly id="527762214" type="building" color="255,230,230" fill="1" layer="-1.00" shape="2115.115439,2994.838925 2125.474363,2990.333968 2122.865314,2984.418092 2112.506348,2988.934107 2115.115439,2994.838925"/>
    <poly id="527762215" type="building" color="255,230,230" fill="1" layer="-1.00" shape="2114.463453,3009.512136 2131.768022,3003.121021 2127.746149,2992.366696 2110.441583,2998.757809 2114.463453,3009.512136"/>
    <poly id="527775644" type="building" color="255,230,230" fill="1" layer="-1.00" shape="2224.575102,2912.951367 2233.695623,2909.702323 2229.021462,2896.766774 2219.900900,2900.026876 2224.575102,2912.951367"/>
    <poly id="527775985" type="building" color="255,230,230" fill="1" layer="-1.00" shape="2241.975379,2921.534942 2257.434212,2916.806547 2250.430007,2894.184988 2234.971224,2898.902320 2241.975379,2921.534942"/>
    <poly id="527776079" type="building" color="255,230,230" fill="1" layer="-1.00" shape="2303.043755,2941.138024 2309.409095,2938.375891 2307.356815,2933.711906 2300.991475,2936.474039 2303.043755,2941.138024"/>
    <poly id="527776080" type="building" color="255,230,230" fill="1" layer="-1.00" shape="2308.542229,2931.913856 2321.113592,2927.705028 2317.934292,2918.336431 2305.362974,2922.534198 2308.542229,2931.913856"/>
    <poly id="527776081" type="building" color="255,230,230" fill="1" layer="-1.00" shape="2316.786046,2938.847029 2327.740791,2934.045750 2325.415385,2928.816676 2314.471654,2933.617996 2316.786046,2938.847029"/>
    <poly id="527776082" type="building" color="255,230,230" fill="1" layer="-1.00" shape="2328.746257,2941.680614 2336.580327,2937.895685 2334.198518,2933.009231 2326.353436,2936.794116 2328.746257,2941.680614"/>
    <poly id="527776084" type="building" color="255,230,230" fill="1" layer="-1.00" shape="2310.106341,2948.796508 2321.791954,2942.969562 2319.693681,2938.803069 2308.008068,2944.630014 2310.106341,2948.796508"/>
    <poly id="527776086" type="building" color="255,230,230" fill="1" layer="-1.00" shape="2311.843377,2958.048889 2319.827062,2955.436835 2317.671895,2948.914482 2309.677198,2951.526492 2311.843377,2958.048889"/>
    <poly id="527776088" type="building" color="255,230,230" fill="1" layer="-1.00" shape="2323.624835,2967.185601 2333.088223,2963.561855 2330.831177,2957.746903 2321.356777,2961.370606 2323.624835,2967.185601"/>
    <poly id="527776090" type="building" color="255,230,230" fill="1" layer="-1.00" shape="2344.268132,2974.454650 2351.967161,2971.410167 2349.894703,2966.270555 2342.206687,2969.315081 2344.268132,2974.454650"/>
    <poly id="527776091" type="building" color="255,230,230" fill="1" layer="-1.00" shape="2328.588968,2982.024469 2334.942134,2979.560886 2333.197350,2975.119289 2326.844184,2977.582872 2328.588968,2982.024469"/>
    <poly id="527776092" type="building" color="255,230,230" fill="1" layer="-1.00" shape="2356.066714,2979.200862 2361.990415,2976.724542 2359.698731,2971.318652 2353.775074,2973.783913 2356.066714,2979.200862"/>
    <poly id="527776093" type="building" color="255,230,230" fill="1" layer="-1.00" shape="2348.670314,2983.717418 2354.582960,2981.252115 2352.116707,2975.425289 2346.204018,2977.901651 2348.670314,2983.717418"/>
    <poly id="527776094" type="building" color="255,230,230" fill="1" layer="-1.00" shape="2359.443423,2985.960220 2365.057598,2983.781295 2363.367358,2979.472624 2357.742170,2981.651506 2359.443423,2985.960220"/>
    <poly id="527776095" type="building" color="255,230,230" fill="1" layer="-1.00" shape="2268.129648,2995.435946 2275.223580,2992.234284 2271.456238,2983.980383 2264.351295,2987.182001 2268.129648,2995.435946"/>
    <poly id="527776096" type="building" color="255,230,230" fill="1" layer="-1.00" shape="2270.757464,3002.192393 2277.707624,2999.145000 2275.786162,2994.824364 2268.835959,2997.882815 2270.757464,3002.192393"/>
    <poly id="527776097" type="building" color="255,230,230" fill="1" layer="-1.00" shape="2284.176121,3006.646340 2293.353746,3002.877714 2290.647758,2996.397448 2281.481104,3000.177175 2284.176121,3006.646340"/>
    <poly id="527776098" type="building" color="255,230,230" fill="1" layer="-1.00" shape="2301.643372,2998.066047 2309.485621,2995.011068 2307.653510,2990.370062 2299.811262,2993.425039 2301.643372,2998.066047"/>
    <poly id="527776099" type="building" color="255,230,230" fill="1" layer="-1.00" shape="2303.964701,3007.165875 2312.248591,3003.825075 2309.652299,2997.455832 2301.368409,3000.796631 2303.964701,3007.165875"/>
    <poly id="527776100" type="building" color="255,230,230" fill="1" layer="-1.00" shape="2304.530073,2977.971422 2310.343605,2975.505739 2307.560483,2969.036232 2301.746951,2971.501916 2304.530073,2977.971422"/>
    <poly id="527776101" type="building" color="255,230,230" fill="1" layer="-1.00" shape="2309.800546,2987.679954 2314.393236,2984.800314 2309.981919,2977.882086 2305.400243,2980.761769 2309.800546,2987.679954"/>
    <poly id="527776102" type="building" color="255,230,230" fill="1" layer="-1.00" shape="2298.263824,2992.036588 2305.668400,2988.249988 2302.334457,2981.822571 2294.940894,2985.609213 2298.263824,2992.036588"/>
    <poly id="527776103" type="building" color="255,230,230" fill="1" layer="-1.00" shape="2290.616422,2984.663366 2301.273229,2980.015760 2298.205582,2973.080652 2287.548734,2977.739315 2290.616422,2984.663366"/>
    <poly id="527776104" type="building" color="255,230,230" fill="1" layer="-1.00" shape="2270.262869,2976.521732 2277.071064,2973.164125 2274.229863,2967.468544 2267.421712,2970.815091 2270.262869,2976.521732"/>
    <poly id="527776105" type="building" color="255,230,230" fill="1" layer="-1.00" shape="2289.239099,2959.420579 2297.660976,2957.407443 2296.371221,2952.071811 2287.938289,2954.095964 2289.239099,2959.420579"/>
    <poly id="527776106" type="building" color="255,230,230" fill="1" layer="-1.00" shape="2276.848674,2953.942123 2287.498617,2951.052930 2285.663391,2944.388050 2275.013449,2947.277242 2276.848674,2953.942123"/>
    <poly id="527776107" type="building" color="255,230,230" fill="1" layer="-1.00" shape="2249.526089,2953.691786 2258.103875,2951.236892 2256.278243,2944.937005 2247.700415,2947.402958 2249.526089,2953.691786"/>
    <poly id="527776108" type="building" color="255,230,230" fill="1" layer="-1.00" shape="2255.837085,2964.864219 2264.560888,2961.679976 2261.770901,2954.148742 2253.047057,2957.344044 2255.837085,2964.864219"/>
    <poly id="527776109" type="building" color="255,230,230" fill="1" layer="-1.00" shape="2232.221564,2960.082942 2243.171755,2956.453955 2240.656924,2948.968029 2229.706735,2952.597015 2232.221564,2960.082942"/>
    <poly id="527776110" type="building" color="255,230,230" fill="1" layer="-1.00" shape="2219.079652,2960.916421 2226.028128,2958.300345 2224.185792,2953.460225 2217.237316,2956.076301 2219.079652,2960.916421"/>
    <poly id="527776111" type="building" color="255,230,230" fill="1" layer="-1.00" shape="2223.018843,2973.108127 2230.056675,2970.171677 2225.964607,2960.467729 2218.915763,2963.404134 2223.018843,2973.108127"/>
    <poly id="527776112" type="building" color="255,230,230" fill="1" layer="-1.00" shape="2254.390598,2994.066301 2260.314310,2991.589993 2258.753776,2987.912205 2252.841078,2990.388555 2254.390598,2994.066301"/>
    <poly id="527776114" type="building" color="255,230,230" fill="1" layer="-1.00" shape="2243.293406,3001.499133 2252.312281,2998.902186 2250.366797,2992.270052 2241.347880,2994.878057 2243.293406,3001.499133"/>
    <poly id="530144838" type="building" color="255,230,230" fill="1" layer="-1.00" shape="2349.056150,2958.193970 2346.132141,2951.137773 2335.619854,2955.443111 2338.543862,2962.499309 2349.056150,2958.193970"/>
    <poly id="530177253" type="building" color="255,230,230" fill="1" layer="-1.00" shape="2204.338511,2894.602374 2209.907513,2892.710837 2206.183159,2881.913444 2200.625171,2883.805024 2204.338511,2894.602374"/>
    <poly id="530177254" type="building" color="255,230,230" fill="1" layer="-1.00" shape="2059.060889,2712.241640 2066.230723,2709.338916 2064.147043,2704.265594 2056.977209,2707.168317 2059.060889,2712.241640"/>
</additional>
