<?xml version="1.0" encoding="UTF-8"?>

<!-- generated on Wed Apr 29 11:30:22 2020 by Eclipse SUMO polyconvert Version 1.5.0
<configuration xmlns:xsi="http://www.w3.org/2001/XMLSchema-instance" xsi:noNamespaceSchemaLocation="http://sumo.dlr.de/xsd/polyconvertConfiguration.xsd">

    <input>
        <net-file value="osmfiles/netfiles/mau_sebudi.net.xml"/>
        <osm-files value="osmfiles/mau_sebudi.osm"/>
        <type-file value="/usr/share/sumo/data/typemap/osmPolyconvert.typ.xml"/>
    </input>

    <output>
        <output-file value="osmfiles/polyfiles/53_1.poly.xml"/>
    </output>

    <processing>
        <poi-layer-offset value="5"/>
    </processing>

</configuration>
-->

<additional xmlns:xsi="http://www.w3.org/2001/XMLSchema-instance" xsi:noNamespaceSchemaLocation="http://sumo.dlr.de/xsd/additional_file.xsd">
    <location netOffset="-329165.89,930795.17" convBoundary="-0.00,-0.00,5838.16,8411.03" origBoundary="115.448347,-8.417527,115.501639,-8.341677" projParameter="+proj=utm +zone=50 +ellps=WGS84 +datum=WGS84 +units=m +no_defs"/>

    <poly id="210613405" type="water" color="181,209,209" fill="0" layer="-4.00" shape="5838.158004,8411.025457 5695.700036,8138.064478 5563.218419,7860.506829 5518.555293,7796.945801 5517.801161,7685.411251 5434.220264,7602.923498 5395.635552,7493.589368 5317.864818,7435.774310 5265.376857,7391.038942 5227.388808,7301.602281 5169.121014,7221.621204 5117.030159,7113.352065 5045.999625,6972.275281 4997.359681,6886.325450 4956.103475,6862.689137 4884.551277,6855.437280 4838.586143,6824.738124 4827.570601,6790.589415 4830.399048,6667.334365 4814.220130,6572.185441 4736.505794,6500.279661 4683.619114,6424.951953 4619.056399,6315.528090 4563.941754,6203.795730 4549.987707,6146.212184 4551.893070,6088.766849 4575.667846,6052.473173 4585.908673,6024.267192 4554.391784,5919.669914 4492.065653,5841.949949 4343.963806,5638.300853 4222.681762,5526.313518 4126.258885,5402.687504 4062.864333,5296.783560 3983.862210,5254.222037 3858.461290,5291.307256 3793.601970,5257.016876 3776.279604,5153.645552 3613.563333,5062.630424 3645.763755,4986.445772 3654.179779,4948.920986 3636.821086,4912.170395 3597.906526,4890.299754 3555.088669,4809.722442 3508.829002,4702.136067 3468.731735,4681.432975 3450.147948,4691.015893 3369.279713,4732.706374 3253.521567,4722.869231 3194.657592,4665.110974 3081.599427,4569.596368 3040.512803,4500.172781 2907.292389,4421.013541 2833.263506,4315.076742 2762.539712,4271.361209 2746.170995,4226.695437 2719.345931,4135.031187 2661.650044,4083.160006 2633.601271,4003.224829 2573.473926,3967.778177 2544.201367,3899.572077 2461.757292,3831.170090 2434.321336,3828.785081 2322.559127,3771.936227 2202.296450,3703.386286 2156.409684,3653.904822 2094.164508,3557.401484 2038.904793,3485.587618 2059.446252,3369.456149 2104.767971,3261.638495 2063.853926,3148.784027 1992.433965,2979.473971 1980.835574,2926.310578 1981.251448,2893.156255 1953.889507,2866.340995 1853.159178,2791.407145 1826.153700,2746.699119 1787.866459,2717.197795 1723.034265,2677.329446 1649.734796,2614.534921 1594.651567,2574.118356 1584.162548,2535.933477 1549.296460,2465.359687 1525.170237,2439.220294"/>
    <poly id="527278697" type="building" color="255,230,230" fill="1" layer="-1.00" shape="2455.533897,2850.028382 2461.159622,2847.705722 2459.261083,2843.152939 2453.624389,2845.464497 2455.533897,2850.028382"/>
    <poly id="527278698" type="building" color="255,230,230" fill="1" layer="-1.00" shape="2464.188545,2864.583006 2466.689393,2870.011823 2472.757402,2867.237452 2470.256511,2861.819695 2464.188545,2864.583006"/>
    <poly id="527278699" type="building" color="255,230,230" fill="1" layer="-1.00" shape="2463.024424,2860.917832 2472.786888,2856.841794 2470.124208,2850.549719 2460.361744,2854.625756 2463.024424,2860.917832"/>
    <poly id="527278701" type="building" color="255,230,230" fill="1" layer="-1.00" shape="2377.864575,2919.123033 2384.417513,2916.262087 2382.070292,2910.977635 2375.528367,2913.838623 2377.864575,2919.123033"/>
    <poly id="527278702" type="building" color="255,230,230" fill="1" layer="-1.00" shape="2312.022633,2835.821762 2321.194425,2830.714934 2319.258507,2827.278990 2310.086758,2832.374758 2312.022633,2835.821762"/>
    <poly id="527278703" type="building" color="255,230,230" fill="1" layer="-1.00" shape="2304.067717,2867.774353 2318.874758,2860.731997 2314.483052,2851.613035 2299.675970,2858.666448 2304.067717,2867.774353"/>
    <poly id="527278704" type="building" color="255,230,230" fill="1" layer="-1.00" shape="2295.127801,2850.133018 2304.636256,2846.244034 2301.712265,2839.187831 2292.203811,2843.076814 2295.127801,2850.133018"/>
    <poly id="527289277" type="building" color="255,230,230" fill="1" layer="-1.00" shape="2834.338456,4018.304362 2842.288078,4027.337504 2854.742117,4016.525611 2846.781482,4007.492429 2834.338456,4018.304362"/>
    <poly id="527289279" type="building" color="255,230,230" fill="1" layer="-1.00" shape="2832.946048,4016.684297 2846.223587,4006.517044 2839.823782,3998.275131 2826.546243,4008.442381 2832.946048,4016.684297"/>
    <poly id="527289281" type="building" color="255,230,230" fill="1" layer="-1.00" shape="2815.737944,3995.339368 2829.637094,3986.756016 2823.835958,3977.498967 2809.947865,3986.071301 2815.737944,3995.339368"/>
    <poly id="527289282" type="building" color="255,230,230" fill="1" layer="-1.00" shape="2801.963015,3969.097428 2805.343845,3974.839280 2814.373120,3969.599052 2810.992333,3963.846142 2801.963015,3969.097428"/>
    <poly id="527289283" type="building" color="255,230,230" fill="1" layer="-1.00" shape="2807.819977,3963.977593 2815.843356,3959.684560 2810.408540,3949.687956 2802.385161,3953.980989 2807.819977,3963.977593"/>
    <poly id="527289284" type="building" color="255,230,230" fill="1" layer="-1.00" shape="2799.533653,3967.915707 2806.194577,3962.798994 2801.328944,3956.542647 2794.668063,3961.648299 2799.533653,3967.915707"/>
    <poly id="527289285" type="building" color="255,230,230" fill="1" layer="-1.00" shape="2720.862925,3877.808472 2715.647472,3870.887193 2710.400960,3874.792862 2715.616413,3881.714143 2720.862925,3877.808472"/>
    <poly id="527289286" type="building" color="255,230,230" fill="1" layer="-1.00" shape="2718.385270,3869.216816 2726.965621,3863.300245 2722.792810,3857.312000 2714.201489,3863.217468 2718.385270,3869.216816"/>
    <poly id="527289287" type="building" color="255,230,230" fill="1" layer="-1.00" shape="2787.164536,4013.575805 2792.645926,4020.088908 2799.684098,4014.254805 2794.202751,4007.730644 2787.164536,4013.575805"/>
    <poly id="527289288" type="building" color="255,230,230" fill="1" layer="-1.00" shape="2761.186923,3990.139759 2766.533528,3997.326961 2779.268213,3987.987067 2773.921608,3980.799866 2761.186923,3990.139759"/>
    <poly id="527289289" type="building" color="255,230,230" fill="1" layer="-1.00" shape="2756.191969,3983.152989 2760.850111,3988.955104 2773.665066,3978.797134 2769.006882,3973.006080 2756.191969,3983.152989"/>
    <poly id="527289290" type="building" color="255,230,230" fill="1" layer="-1.00" shape="2755.163860,3981.313149 2768.718933,3970.582972 2763.699162,3964.314962 2750.144089,3975.045137 2755.163860,3981.313149"/>
    <poly id="527289291" type="building" color="255,230,230" fill="1" layer="-1.00" shape="2724.519597,3962.780341 2730.767083,3970.535075 2744.543283,3959.584577 2738.295797,3951.829846 2724.519597,3962.780341"/>
    <poly id="527289292" type="building" color="255,230,230" fill="1" layer="-1.00" shape="2729.639105,3937.706646 2735.088912,3946.674805 2744.924734,3940.774166 2739.485939,3931.806051 2729.639105,3937.706646"/>
    <poly id="527289293" type="building" color="255,230,230" fill="1" layer="-1.00" shape="2719.320541,3931.794058 2723.425993,3938.113819 2741.930580,3926.219535 2737.825085,3919.910835 2719.320541,3931.794058"/>
    <poly id="527289294" type="building" color="255,230,230" fill="1" layer="-1.00" shape="2714.053041,3918.424996 2718.638558,3925.907852 2727.668741,3920.435400 2723.083223,3912.952545 2714.053041,3918.424996"/>
    <poly id="527289295" type="building" color="255,230,230" fill="1" layer="-1.00" shape="2703.459229,3909.658030 2710.330785,3904.188252 2706.067158,3898.896390 2699.195645,3904.355108 2703.459229,3909.658030"/>
    <poly id="527289296" type="building" color="255,230,230" fill="1" layer="-1.00" shape="2689.283665,3907.180950 2693.483501,3914.717608 2701.032762,3910.566524 2696.832926,3903.029867 2689.283665,3907.180950"/>
    <poly id="527289297" type="building" color="255,230,230" fill="1" layer="-1.00" shape="2706.532751,3895.281803 2713.147735,3890.651536 2710.431295,3886.825516 2703.816310,3891.455783 2706.532751,3895.281803"/>
    <poly id="527289298" type="building" color="255,230,230" fill="1" layer="-1.00" shape="2695.380540,3897.007955 2698.249059,3901.376473 2706.021976,3896.352572 2703.153500,3891.972995 2695.380540,3897.007955"/>
    <poly id="527289299" type="building" color="255,230,230" fill="1" layer="-1.00" shape="2698.423432,3893.348087 2709.378156,3885.759730 2706.563327,3881.745319 2695.597634,3889.322573 2698.423432,3893.348087"/>
    <poly id="527289300" type="building" color="255,230,230" fill="1" layer="-1.00" shape="2686.639761,3904.527498 2695.445942,3900.016343 2692.811365,3894.963056 2684.016198,3899.474253 2686.639761,3904.527498"/>
    <poly id="527289301" type="building" color="255,230,230" fill="1" layer="-1.00" shape="2667.119806,3891.467992 2658.077010,3880.351405 2649.636462,3887.131135 2658.679301,3898.236664 2667.119806,3891.467992"/>
    <poly id="527289302" type="building" color="255,230,230" fill="1" layer="-1.00" shape="2684.957889,3881.042031 2694.569747,3876.091635 2688.972652,3865.353404 2679.349782,3870.303756 2684.957889,3881.042031"/>
    <poly id="527289303" type="building" color="255,230,230" fill="1" layer="-1.00" shape="2673.005774,3859.053890 2676.833087,3866.091433 2685.783551,3861.293300 2681.956237,3854.255757 2673.005774,3859.053890"/>
    <poly id="527289304" type="building" color="255,230,230" fill="1" layer="-1.00" shape="2663.126301,3853.519007 2666.833671,3860.246424 2677.417824,3854.492482 2673.710453,3847.765066 2663.126301,3853.519007"/>
    <poly id="527289305" type="building" color="255,230,230" fill="1" layer="-1.00" shape="2669.584213,3846.797926 2673.756431,3844.436390 2669.435592,3836.866080 2665.252404,3839.216513 2669.584213,3846.797926"/>
    <poly id="527289306" type="building" color="255,230,230" fill="1" layer="-1.00" shape="2668.328454,3846.859400 2663.552636,3840.172067 2657.821070,3844.197497 2662.596844,3850.895890 2668.328454,3846.859400"/>
    <poly id="527289308" type="building" color="255,230,230" fill="1" layer="-1.00" shape="2658.314027,3856.209834 2652.529677,3845.481927 2641.912869,3851.136203 2647.697218,3861.864111 2658.314027,3856.209834"/>
    <poly id="527289309" type="building" color="255,230,230" fill="1" layer="-1.00" shape="2655.961671,3835.221161 2659.113214,3840.442352 2669.633262,3834.179434 2666.470706,3828.958202 2655.961671,3835.221161"/>
    <poly id="527289311" type="building" color="255,230,230" fill="1" layer="-1.00" shape="2650.309963,3827.203303 2654.290379,3834.517927 2667.026351,3827.677481 2663.034964,3820.351755 2650.309963,3827.203303"/>
    <poly id="527289312" type="building" color="255,230,230" fill="1" layer="-1.00" shape="2648.551376,3823.458416 2658.704643,3820.887888 2656.448128,3812.075898 2646.294863,3814.646425 2648.551376,3823.458416"/>
    <poly id="527289314" type="building" color="255,230,230" fill="1" layer="-1.00" shape="2641.155569,3824.966908 2645.742032,3823.701858 2643.699805,3816.427946 2639.113344,3817.692996 2641.155569,3824.966908"/>
    <poly id="527289316" type="building" color="255,230,230" fill="1" layer="-1.00" shape="2631.503987,3820.306588 2633.871656,3826.022403 2639.199569,3823.842313 2636.831900,3818.126498 2631.503987,3820.306588"/>
    <poly id="527289317" type="building" color="255,230,230" fill="1" layer="-1.00" shape="2627.857825,3826.164911 2623.791788,3809.714951 2613.826303,3812.142430 2617.892337,3828.592391 2627.857825,3826.164911"/>
    <poly id="527289319" type="building" color="255,230,230" fill="1" layer="-1.00" shape="2643.496784,3811.992369 2640.653737,3803.908013 2633.231735,3806.489155 2636.074781,3814.573513 2643.496784,3811.992369"/>
    <poly id="527289320" type="building" color="255,230,230" fill="1" layer="-1.00" shape="2646.602494,3812.004444 2654.588015,3808.949939 2651.055137,3799.834384 2643.069617,3802.888889 2646.602494,3812.004444"/>
    <poly id="527289321" type="building" color="255,230,230" fill="1" layer="-1.00" shape="2630.915474,3798.882397 2642.299501,3797.013396 2640.749897,3787.673305 2629.365872,3789.542305 2630.915474,3798.882397"/>
    <poly id="527289322" type="building" color="255,230,230" fill="1" layer="-1.00" shape="2665.663450,3753.309324 2667.988671,3764.278148 2698.520439,3757.871831 2696.184199,3746.902967 2665.663450,3753.309324"/>
    <poly id="527289323" type="building" color="255,230,230" fill="1" layer="-1.00" shape="2682.732423,3731.069032 2685.592380,3740.469510 2696.453130,3737.216050 2693.604185,3727.815615 2682.732423,3731.069032"/>
    <poly id="527289324" type="building" color="255,230,230" fill="1" layer="-1.00" shape="2652.689830,3727.800332 2655.551371,3736.791625 2683.206539,3728.095919 2680.344993,3719.104628 2652.689830,3727.800332"/>
    <poly id="527289325" type="building" color="255,230,230" fill="1" layer="-1.00" shape="2647.577854,3711.268892 2658.150540,3708.456695 2656.098598,3700.850964 2645.525870,3703.674220 2647.577854,3711.268892"/>
    <poly id="527289326" type="building" color="255,230,230" fill="1" layer="-1.00" shape="2631.187733,3711.868721 2643.532976,3709.207191 2641.996202,3702.233844 2629.661974,3704.895416 2631.187733,3711.868721"/>
    <poly id="527289327" type="building" color="255,230,230" fill="1" layer="-1.00" shape="2638.478479,3717.548384 2648.161125,3714.212939 2646.712503,3710.060062 2637.029815,3713.406565 2638.478479,3717.548384"/>
    <poly id="527289328" type="building" color="255,230,230" fill="1" layer="-1.00" shape="2577.129106,3786.861876 2584.048603,3800.215272 2593.450651,3795.407855 2586.531152,3782.054461 2577.129106,3786.861876"/>
    <poly id="527289329" type="building" color="255,230,230" fill="1" layer="-1.00" shape="2568.083216,3776.552580 2574.345057,3786.264904 2583.972486,3780.142306 2577.710643,3770.429984 2568.083216,3776.552580"/>
    <poly id="527289330" type="building" color="255,230,230" fill="1" layer="-1.00" shape="2573.589272,3768.213149 2565.947779,3756.438424 2557.843780,3761.637960 2565.474302,3773.401585 2573.589272,3768.213149"/>
    <poly id="527289331" type="building" color="255,230,230" fill="1" layer="-1.00" shape="2579.126734,3765.956466 2571.655814,3752.799991 2567.792739,3754.963651 2575.274671,3768.120170 2579.126734,3765.956466"/>
    <poly id="527289332" type="building" color="255,230,230" fill="1" layer="-1.00" shape="2586.167487,3759.458850 2581.115374,3750.193607 2573.158077,3754.486851 2578.221246,3763.741080 2586.167487,3759.458850"/>
    <poly id="527289333" type="building" color="255,230,230" fill="1" layer="-1.00" shape="2599.922733,3756.725398 2604.828710,3763.921977 2612.745951,3758.600055 2607.840017,3751.392417 2599.922733,3756.725398"/>
    <poly id="527289334" type="building" color="255,230,230" fill="1" layer="-1.00" shape="2609.911606,3751.112931 2613.798823,3756.901013 2621.726774,3751.656546 2617.828586,3745.857363 2609.911606,3751.112931"/>
    <poly id="527289335" type="building" color="255,230,230" fill="1" layer="-1.00" shape="2619.973569,3746.529263 2623.377412,3752.005804 2629.449176,3748.291363 2626.045332,3742.814823 2619.973569,3746.529263"/>
    <poly id="527289336" type="building" color="255,230,230" fill="1" layer="-1.00" shape="2618.801140,3744.987458 2628.408036,3741.308884 2626.358078,3736.025616 2616.751227,3739.693131 2618.801140,3744.987458"/>
    <poly id="527289337" type="building" color="255,230,230" fill="1" layer="-1.00" shape="2607.873391,3742.810513 2610.994675,3747.312736 2617.068160,3743.155931 2613.946875,3738.653709 2607.873391,3742.810513"/>
    <poly id="527289338" type="building" color="255,230,230" fill="1" layer="-1.00" shape="2595.745690,3749.000806 2599.247703,3754.721036 2608.642124,3749.039901 2605.140110,3743.319672 2595.745690,3749.000806"/>
    <poly id="527289339" type="building" color="255,230,230" fill="1" layer="-1.00" shape="2584.713706,3753.801882 2589.037144,3760.697596 2597.184502,3755.675173 2592.861106,3748.768401 2584.713706,3753.801882"/>
    <poly id="527289340" type="building" color="255,230,230" fill="1" layer="-1.00" shape="2582.079496,3748.660111 2584.423878,3751.865374 2589.901797,3747.927442 2587.557458,3744.711120 2582.079496,3748.660111"/>
    <poly id="527289341" type="building" color="255,230,230" fill="1" layer="-1.00" shape="2597.228333,3747.237080 2607.218022,3741.414490 2604.428036,3736.681310 2594.427291,3742.514915 2597.228333,3747.237080"/>
    <poly id="527289342" type="building" color="255,230,230" fill="1" layer="-1.00" shape="2605.509173,3736.209963 2608.374789,3741.319455 2614.147219,3738.112581 2611.281603,3733.003090 2605.509173,3736.209963"/>
    <poly id="527289343" type="building" color="255,230,230" fill="1" layer="-1.00" shape="2617.094397,3739.241034 2625.673281,3733.700496 2621.896197,3727.912843 2613.306300,3733.453337 2617.094397,3739.241034"/>
    <poly id="527289344" type="building" color="255,230,230" fill="1" layer="-1.00" shape="2600.937632,3722.312735 2604.376964,3729.990221 2613.103453,3726.142336 2609.664119,3718.464851 2600.937632,3722.312735"/>
    <poly id="527289345" type="building" color="255,230,230" fill="1" layer="-1.00" shape="2592.679941,3738.714772 2599.951838,3735.082418 2595.623754,3726.549907 2588.351815,3730.193319 2592.679941,3738.714772"/>
    <poly id="527289346" type="building" color="255,230,230" fill="1" layer="-1.00" shape="2570.676243,3738.485416 2575.842700,3746.667293 2588.130267,3739.017797 2582.963809,3730.835922 2570.676243,3738.485416"/>
    <poly id="527289347" type="building" color="255,230,230" fill="1" layer="-1.00" shape="2565.976300,3749.106203 2572.049489,3745.026818 2567.931992,3738.983470 2561.858803,3743.062855 2565.976300,3749.106203"/>
    <poly id="527289348" type="building" color="255,230,230" fill="1" layer="-1.00" shape="2563.320970,3749.394476 2553.863951,3731.530057 2544.450509,3736.436954 2553.907527,3754.301375 2563.320970,3749.394476"/>
    <poly id="527289349" type="building" color="255,230,230" fill="1" layer="-1.00" shape="2590.519335,3725.070224 2584.505211,3713.965390 2577.541339,3717.687414 2583.555463,3728.792248 2590.519335,3725.070224"/>
    <poly id="527289350" type="building" color="255,230,230" fill="1" layer="-1.00" shape="2591.558011,3724.189518 2606.001089,3717.333614 2599.992382,3704.835330 2585.549307,3711.691231 2591.558011,3724.189518"/>
    <poly id="527461714" type="building" color="255,230,230" fill="1" layer="-1.00" shape="2377.735954,3197.983691 2381.925183,3194.073951 2378.667677,3190.632864 2374.489418,3194.553706 2377.735954,3197.983691"/>
    <poly id="527461715" type="building" color="255,230,230" fill="1" layer="-1.00" shape="2385.056308,3196.032594 2394.028347,3188.502967 2388.404397,3181.878631 2379.432359,3189.408257 2385.056308,3196.032594"/>
    <poly id="527461716" type="building" color="255,230,230" fill="1" layer="-1.00" shape="2390.675472,3232.152156 2397.320709,3225.398675 2389.881847,3218.192184 2383.247621,3224.945708 2390.675472,3232.152156"/>
    <poly id="527461717" type="building" color="255,230,230" fill="1" layer="-1.00" shape="2424.058221,3231.696062 2429.454071,3226.198474 2424.637492,3221.523732 2419.241642,3227.021320 2424.058221,3231.696062"/>
    <poly id="527461718" type="building" color="255,230,230" fill="1" layer="-1.00" shape="2431.472554,3225.410064 2436.427968,3219.888641 2430.731770,3214.845516 2425.776356,3220.366939 2431.472554,3225.410064"/>
    <poly id="527461719" type="building" color="255,230,230" fill="1" layer="-1.00" shape="2437.602024,3243.626541 2441.734420,3240.170006 2437.206718,3234.843891 2433.074322,3238.300426 2437.602024,3243.626541"/>
    <poly id="527461720" type="building" color="255,230,230" fill="1" layer="-1.00" shape="2429.656596,3236.407027 2434.394880,3232.908615 2431.874981,3229.536763 2427.136654,3233.046233 2429.656596,3236.407027"/>
    <poly id="527461721" type="building" color="255,230,230" fill="1" layer="-1.00" shape="2466.393315,3208.968136 2473.329039,3203.974211 2469.451063,3198.661689 2462.515382,3203.644555 2466.393315,3208.968136"/>
    <poly id="527461722" type="building" color="255,230,230" fill="1" layer="-1.00" shape="2470.488912,3217.787314 2479.556134,3211.264441 2475.404339,3205.563777 2466.326147,3212.075547 2470.488912,3217.787314"/>
    <poly id="527461723" type="building" color="255,230,230" fill="1" layer="-1.00" shape="2495.508886,3240.921327 2500.499947,3237.556605 2494.400360,3228.630095 2489.409300,3231.994816 2495.508886,3240.921327"/>
    <poly id="527461724" type="building" color="255,230,230" fill="1" layer="-1.00" shape="2485.811500,3228.264872 2491.365731,3224.515268 2483.568778,3213.104856 2478.014590,3216.843400 2485.811500,3228.264872"/>
    <poly id="527461725" type="building" color="255,230,230" fill="1" layer="-1.00" shape="2481.650741,3236.178209 2473.777127,3224.656904 2465.374042,3230.319735 2473.236642,3241.840999 2481.650741,3236.178209"/>
    <poly id="527461726" type="building" color="255,230,230" fill="1" layer="-1.00" shape="2494.855320,3256.036885 2500.411189,3251.867032 2496.159839,3246.276577 2490.604013,3250.435371 2494.855320,3256.036885"/>
    <poly id="527762128" type="building" color="255,230,230" fill="1" layer="-1.00" shape="2869.134484,3444.129504 2875.069954,3435.791719 2870.182420,3432.355408 2864.246949,3440.693192 2869.134484,3444.129504"/>
    <poly id="527762129" type="building" color="255,230,230" fill="1" layer="-1.00" shape="2871.644301,3444.437854 2876.399165,3448.006361 2880.417392,3442.746676 2875.651558,3439.167068 2871.644301,3444.437854"/>
    <poly id="527762130" type="building" color="255,230,230" fill="1" layer="-1.00" shape="2543.653318,2939.576177 2549.589433,2936.734924 2546.803439,2930.995344 2540.867282,2933.847655 2543.653318,2939.576177"/>
    <poly id="527762131" type="building" color="255,230,230" fill="1" layer="-1.00" shape="2458.786962,2885.696347 2465.053121,2882.944867 2461.395803,2874.713534 2455.129645,2877.465013 2458.786962,2885.696347"/>
    <poly id="527762132" type="building" color="255,230,230" fill="1" layer="-1.00" shape="2437.196569,2855.818379 2445.917487,2853.364010 2443.766145,2845.857399 2435.045228,2848.311767 2437.196569,2855.818379"/>
    <poly id="527762133" type="building" color="255,230,230" fill="1" layer="-1.00" shape="2533.861833,3024.639587 2543.481110,3020.574030 2541.134595,3015.101585 2531.515318,3019.167142 2533.861833,3024.639587"/>
    <poly id="527762134" type="building" color="255,230,230" fill="1" layer="-1.00" shape="2539.297555,3034.348724 2546.689373,3031.004408 2543.173082,3023.315544 2535.770208,3026.670875 2539.297555,3034.348724"/>
    <poly id="527762135" type="building" color="255,230,230" fill="1" layer="-1.00" shape="2783.309780,3143.436104 2787.860376,3142.878709 2787.144733,3137.158261 2782.594137,3137.715655 2783.309780,3143.436104"/>
    <poly id="527762136" type="building" color="255,230,230" fill="1" layer="-1.00" shape="2784.975463,3131.410043 2799.470639,3128.093298 2797.715770,3120.566142 2783.231608,3123.882928 2784.975463,3131.410043"/>
    <poly id="527762137" type="building" color="255,230,230" fill="1" layer="-1.00" shape="2764.282389,3136.914550 2768.960105,3134.820407 2766.765328,3129.967893 2762.087613,3132.062036 2764.282389,3136.914550"/>
    <poly id="527762138" type="building" color="255,230,230" fill="1" layer="-1.00" shape="2749.634361,3142.719036 2761.906042,3139.106115 2758.731487,3128.487887 2746.459808,3132.100807 2749.634361,3142.719036"/>
    <poly id="527762139" type="building" color="255,230,230" fill="1" layer="-1.00" shape="2753.141756,3152.708179 2764.673291,3149.678522 2762.621762,3141.973261 2751.090230,3145.002917 2753.141756,3152.708179"/>
    <poly id="527762140" type="building" color="255,230,230" fill="1" layer="-1.00" shape="2401.028559,3076.510240 2411.545648,3070.977315 2408.517072,3065.314194 2398.010997,3070.847162 2401.028559,3076.510240"/>
    <poly id="527762141" type="building" color="255,230,230" fill="1" layer="-1.00" shape="2403.802569,3085.324280 2408.838795,3081.672204 2405.650866,3077.335583 2400.614639,3080.987658 2403.802569,3085.324280"/>
    <poly id="527762142" type="building" color="255,230,230" fill="1" layer="-1.00" shape="2384.135408,3090.379175 2390.664079,3085.273084 2387.113197,3080.813394 2380.595539,3085.919527 2384.135408,3090.379175"/>
    <poly id="527762143" type="building" color="255,230,230" fill="1" layer="-1.00" shape="2390.455598,3099.207034 2395.194433,3095.564860 2393.068558,3092.824921 2388.318667,3096.478111 2390.455598,3099.207034"/>
    <poly id="527762144" type="building" color="255,230,230" fill="1" layer="-1.00" shape="2391.457076,3107.870396 2397.376026,3103.790447 2394.298484,3099.387899 2388.379535,3103.467848 2391.457076,3107.870396"/>
    <poly id="527762145" type="building" color="255,230,230" fill="1" layer="-1.00" shape="2395.411761,3116.102892 2403.121107,3110.415255 2399.078256,3105.024666 2391.379923,3110.712345 2395.411761,3116.102892"/>
    <poly id="527762146" type="building" color="255,230,230" fill="1" layer="-1.00" shape="2420.511084,3118.843865 2424.888643,3114.647314 2419.733090,3109.351926 2415.366586,3113.537461 2420.511084,3118.843865"/>
    <poly id="527762147" type="building" color="255,230,230" fill="1" layer="-1.00" shape="2452.224963,3128.356781 2455.739242,3125.251738 2451.912249,3120.990048 2448.409027,3124.084075 2452.224963,3128.356781"/>
    <poly id="527762148" type="building" color="255,230,230" fill="1" layer="-1.00" shape="2447.341195,3132.451830 2450.654182,3130.131216 2445.659656,3123.078025 2442.346712,3125.387580 2447.341195,3132.451830"/>
    <poly id="527762149" type="building" color="255,230,230" fill="1" layer="-1.00" shape="2440.655056,3141.229014 2447.371764,3135.913520 2440.171078,3126.938471 2433.454413,3132.242905 2440.655056,3141.229014"/>
    <poly id="527762150" type="building" color="255,230,230" fill="1" layer="-1.00" shape="2414.228431,3139.953775 2421.784198,3134.110706 2417.061036,3128.076027 2409.505269,3133.919096 2414.228431,3139.953775"/>
    <poly id="527762151" type="building" color="255,230,230" fill="1" layer="-1.00" shape="2421.571723,3149.073156 2429.282233,3143.086917 2425.084935,3137.762085 2417.374426,3143.748324 2421.571723,3149.073156"/>
    <poly id="527762152" type="building" color="255,230,230" fill="1" layer="-1.00" shape="2457.652674,3140.122933 2463.199073,3135.554913 2458.057972,3129.374841 2452.500603,3133.931759 2457.652674,3140.122933"/>
    <poly id="527762153" type="building" color="255,230,230" fill="1" layer="-1.00" shape="2446.684203,3148.441065 2451.102540,3145.085179 2447.135823,3139.938198 2442.717529,3143.283025 2446.684203,3148.441065"/>
    <poly id="527762154" type="building" color="255,230,230" fill="1" layer="-1.00" shape="2425.828200,3195.749065 2431.370172,3192.320142 2428.141324,3187.176033 2422.599352,3190.604957 2425.828200,3195.749065"/>
    <poly id="527762155" type="building" color="255,230,230" fill="1" layer="-1.00" shape="2416.646928,3240.028048 2422.277715,3233.591332 2418.084786,3229.969656 2412.443028,3236.395270 2416.646928,3240.028048"/>
    <poly id="527762156" type="building" color="255,230,230" fill="1" layer="-1.00" shape="2319.731688,2903.634517 2324.886762,2900.569062 2321.067825,2894.250348 2315.923765,2897.315846 2319.731688,2903.634517"/>
    <poly id="527762157" type="building" color="255,230,230" fill="1" layer="-1.00" shape="2300.049253,2915.446559 2313.069107,2909.193505 2310.042715,2902.977414 2297.022861,2909.230467 2300.049253,2915.446559"/>
    <poly id="527762158" type="building" color="255,230,230" fill="1" layer="-1.00" shape="2285.299640,2907.758094 2291.662691,2905.582100 2290.323151,2901.717166 2283.960100,2903.893159 2285.299640,2907.758094"/>
    <poly id="527762159" type="building" color="255,230,230" fill="1" layer="-1.00" shape="2295.353752,2905.154121 2303.789520,2902.400063 2302.091383,2897.295085 2293.666628,2900.049185 2295.353752,2905.154121"/>
    <poly id="527762160" type="building" color="255,230,230" fill="1" layer="-1.00" shape="2287.993928,2900.292487 2303.665657,2894.624864 2301.235647,2887.979783 2285.563920,2893.647405 2287.993928,2900.292487"/>
    <poly id="527762161" type="building" color="255,230,230" fill="1" layer="-1.00" shape="2316.709110,2885.142575 2322.965864,2881.981882 2317.391614,2871.099874 2311.134861,2874.260567 2316.709110,2885.142575"/>
    <poly id="527762162" type="building" color="255,230,230" fill="1" layer="-1.00" shape="2309.893557,2890.391304 2314.855676,2888.795989 2311.939096,2879.837610 2306.965966,2881.432881 2309.893557,2890.391304"/>
    <poly id="527762163" type="building" color="255,230,230" fill="1" layer="-1.00" shape="2292.760832,2889.450804 2305.335636,2884.357249 2302.619204,2877.733170 2290.044445,2882.815665 2292.760832,2889.450804"/>
    <poly id="527762164" type="building" color="255,230,230" fill="1" layer="-1.00" shape="2291.340606,2875.211893 2299.765357,2872.457795 2297.272766,2864.916663 2288.848017,2867.670761 2291.340606,2875.211893"/>
    <poly id="527762165" type="building" color="255,230,230" fill="1" layer="-1.00" shape="2275.947238,2882.926575 2289.257020,2878.576867 2286.601091,2870.559545 2273.291311,2874.909252 2275.947238,2882.926575"/>