<?xml version="1.0" encoding="UTF-8"?>

<!-- generated on Wed Apr 29 11:30:11 2020 by Eclipse SUMO duarouter Version 1.5.0
<configuration xmlns:xsi="http://www.w3.org/2001/XMLSchema-instance" xsi:noNamespaceSchemaLocation="http://sumo.dlr.de/xsd/duarouterConfiguration.xsd">

    <input>
        <net-file value="osmfiles/netfiles/mau_sebudi.net.xml"/>
        <additional-files value="osmfiles/netfiles/type.add.xml"/>
        <route-files value="trips.trips.xml"/>
    </input>

    <output>
        <output-file value="osmfiles/roufiles/23_1.rou.xml"/>
        <alternatives-output value="osmfiles/roufiles/23_1.rou.alt.xml"/>
    </output>

    <time>
        <begin value="0"/>
        <end value="1.0"/>
    </time>

    <report>
        <no-warnings value="true"/>
        <ignore-errors value="true"/>
        <no-step-log value="true"/>
    </report>

</configuration>
-->

<routes xmlns:xsi="http://www.w3.org/2001/XMLSchema-instance" xsi:noNamespaceSchemaLocation="http://sumo.dlr.de/xsd/routes_file.xsd">
    <vType id="myType" maxSpeed="7.00" vClass="passenger"/>
    <vehicle id="0" type="myType" depart="0.00">
        <route edges="-210617558#1 210617558#1 210617558#2 210617558#3 210617558#4 210617558#5"/>
    </vehicle>
    <vehicle id="1" type="myType" depart="0.04">
        <route edges="gneE31 gneE32 -527775975#0 -451798708#2 -451798708#1"/>
    </vehicle>
    <vehicle id="2" type="myType" depart="0.09">
        <route edges="-gneE6 -gneE5 -gneE4 -701166830#1 701166830#1 gneE4 gneE5 gneE6 gneE7 gneE8 gneE9 451798708#1 -gneE28 -gneE27 -gneE26 -gneE23 -gneE22 gneE29 gneE34 gneE35"/>
    </vehicle>
    <vehicle id="3" type="myType" depart="0.13">
        <route edges="-gneE24 -210617558#2 451798708#0 gneE19 gneE20 -gneE14 -gneE12 gneE60 gneE61 -451798708#3"/>
    </vehicle>
    <vehicle id="4" type="myType" depart="0.17">
        <route edges="-gneE35 -gneE34 gneE30 530135875#0 -gneE43 -gneE45"/>
    </vehicle>
    <vehicle id="5" type="myType" depart="0.22">
        <route edges="-451798708#2 -gneE28 -gneE27 -gneE26 -gneE23 -gneE22 gneE29 gneE30 530135875#0 -530135875#0 -gneE30"/>
    </vehicle>
    <vehicle id="6" type="myType" depart="0.26">
        <route edges="-gneE18 -gneE17 -gneE16 -gneE15 -gneE14 -gneE12 -gneE11 -gneE10 527775828#1 527775828#2 527775828#3 701166839 -451798708#4 -gneE61 -gneE60"/>
    </vehicle>
    <vehicle id="7" type="myType" depart="0.30">
        <route edges="-gneE31 -gneE29 gneE22 gneE23 gneE26 gneE27 gneE28 -451798708#1 gneE19 gneE20 -gneE14 -gneE12 gneE60 gneE61 -451798708#3"/>
    </vehicle>
    <vehicle id="8" type="myType" depart="0.35">
        <route edges="-685526965 -527775975#0 -451798708#2 -gneE28 -gneE27 -gneE26 -gneE23 -gneE22"/>
    </vehicle>
    <vehicle id="9" type="myType" depart="0.39">
        <route edges="-gneE26 -gneE23 -gneE22 gneE29 gneE31 gneE32 685526965"/>
    </vehicle>
    <vehicle id="10" type="myType" depart="0.43">
        <route edges="-gneE22 -gneE21 -210617558#3 -210617558#2 451798708#0 gneE19 gneE20 -gneE14 -gneE12 gneE60 gneE61 -451798708#3"/>
    </vehicle>
    <vehicle id="11" type="myType" depart="0.48">
        <route edges="-gneE15 -gneE20 -gneE19 451798708#1 451798708#2 527775975#0"/>
    </vehicle>
    <vehicle id="12" type="myType" depart="0.52">
        <route edges="-451798708#3 -451798708#2 -gneE28 -gneE27 -gneE26 -gneE23 -gneE22 -gneE21 -210617558#3"/>
    </vehicle>
    <vehicle id="13" type="myType" depart="0.57">
        <route edges="-gneE14 -gneE12 -gneE11 -gneE10 527775828#1 -527775828#1 gneE10 gneE11 gneE12 gneE14 gneE15"/>
    </vehicle>
    <vehicle id="14" type="myType" depart="0.61">
        <route edges="-gneE17 -gneE16 -gneE15 -gneE20 -gneE19 -451798708#0"/>
    </vehicle>
    <vehicle id="15" type="myType" depart="0.65">
        <route edges="210617558#3 gneE21 gneE22 gneE23 gneE26 gneE27 gneE28 451798708#2 451798708#3 -gneE61 -gneE60"/>
    </vehicle>
    <vehicle id="16" type="myType" depart="0.70">
        <route edges="gneE5 gneE6 gneE7 gneE8 gneE9 451798708#1 -gneE28 -gneE27 -gneE26 -gneE23 -gneE22 -gneE21"/>
    </vehicle>
    <vehicle id="17" type="myType" depart="0.74">
        <route edges="-gneE14 -gneE12 -gneE11 -gneE10 -527775828#0 451798708#1"/>
    </vehicle>
    <vehicle id="18" type="myType" depart="0.78">
        <route edges="527775975#1 -gneE33 -gneE31 -gneE29 -gneE21 -210617558#3 -210617558#2 451798708#0"/>
    </vehicle>
    <vehicle id="19" type="myType" depart="0.83">
        <route edges="gneE59 gneE58 gneE33 -530135875#1"/>
    </vehicle>
    <vehicle id="20" type="myType" depart="0.87">
        <route edges="451798708#4 -701166839 -527775828#3 701166835 -gneE3 -gneE2 -gneE1 210617558#1 -210617558#1"/>
    </vehicle>
    <vehicle id="21" type="myType" depart="0.91">
        <route edges="-210617558#3 210617558#3 gneE21 gneE29 gneE59 gneE58"/>
    </vehicle>
    <vehicle id="22" type="myType" depart="0.96">
        <route edges="210617558#1 210617558#2 gneE24 gneE25 -gneE23 -gneE22 gneE29 gneE30 gneE45 -gneE42 -gneE41"/>
    </vehicle>
</routes>
