<?xml version="1.0" encoding="UTF-8"?>

<!-- generated on Thu Mar 12 17:42:38 2020 by Eclipse SUMO duarouter Version 1.4.0
<configuration xmlns:xsi="http://www.w3.org/2001/XMLSchema-instance" xsi:noNamespaceSchemaLocation="http://sumo.dlr.de/xsd/duarouterConfiguration.xsd">

    <input>
        <net-file value="osmfiles/netfiles/sebudi_edit3.net.xml"/>
        <additional-files value="osmfiles/netfiles/type.add.xml"/>
        <route-files value="trips.trips.xml"/>
    </input>

    <output>
        <output-file value="osmfiles/roufiles/25.rou.xml"/>
        <alternatives-output value="osmfiles/roufiles/25.rou.alt.xml"/>
    </output>

    <time>
        <begin value="0"/>
        <end value="25.0"/>
    </time>

    <report>
        <no-warnings value="true"/>
        <ignore-errors value="true"/>
        <no-step-log value="true"/>
    </report>

</configuration>
-->

<routes xmlns:xsi="http://www.w3.org/2001/XMLSchema-instance" xsi:noNamespaceSchemaLocation="http://sumo.dlr.de/xsd/routes_file.xsd">
    <vehicle id="0" depart="0.00">
        <route edges="-451798708#2 -701166839 527775828#4 -527775824 210617558#1"/>
    </vehicle>
    <vehicle id="1" depart="1.00">
        <route edges="527775826#0 527775826#1 527775828#2 527775828#3 527775828#4 -451798708#2"/>
    </vehicle>
    <vehicle id="2" depart="2.00">
        <route edges="451798708#2 -527775828#4 701166839 -701166839"/>
    </vehicle>
    <vehicle id="3" depart="3.00">
        <route edges="-527775826#1 -527775826#0 -210617558#1 527775824"/>
    </vehicle>
    <vehicle id="4" depart="4.00">
        <route edges="527775828#1 527775828#2 527775828#3 527775828#4 -451798708#2"/>
    </vehicle>
    <vehicle id="5" depart="5.00">
        <route edges="-451798708#2 -701166839 527775828#4 -527775828#4"/>
    </vehicle>
    <vehicle id="6" depart="6.00">
        <route edges="527775824 -527775828#4 -527775828#3 527775828#3"/>
    </vehicle>
    <vehicle id="7" depart="7.00">
        <route edges="527775824 -527775828#4 -527775828#3 -527775828#2 -527775828#1 -701166831"/>
    </vehicle>
    <vehicle id="8" depart="8.00">
        <route edges="-210617558#1 210617558#1 527775826#0 701166830#0 701166831"/>
    </vehicle>
    <vehicle id="9" depart="9.00">
        <route edges="451798708#2 -527775824 527775824"/>
    </vehicle>
    <vehicle id="10" depart="10.00">
        <route edges="-527775824 210617558#1 527775826#0 527775826#1 527775828#2"/>
    </vehicle>
    <vehicle id="11" depart="11.00">
        <route edges="-527775826#1 527775826#1 527775828#2 527775828#3 527775828#4 -527775828#4"/>
    </vehicle>
    <vehicle id="12" depart="12.00">
        <route edges="527775824 -527775828#4 701166839 -701166839"/>
    </vehicle>
    <vehicle id="13" depart="13.00">
        <route edges="451798708#2 -527775824 210617558#1 527775826#0"/>
    </vehicle>
    <vehicle id="14" depart="14.00">
        <route edges="527775824"/>
    </vehicle>
    <vehicle id="15" depart="15.00">
        <route edges="-210617558#1 210617558#1 527775826#0 527775826#1 -527775828#1"/>
    </vehicle>
    <vehicle id="16" depart="16.00">
        <route edges="-451798708#2 -701166839 -527775828#3 -527775828#2 -527775828#1 -701166831"/>
    </vehicle>
    <vehicle id="17" depart="17.00">
        <route edges="-527775824 210617558#1"/>
    </vehicle>
    <vehicle id="18" depart="18.00">
        <route edges="-210617558#1 527775824 -527775828#4 -527775828#3 -527775828#2"/>
    </vehicle>
    <vehicle id="19" depart="19.00">
        <route edges="210617558#1 -210617558#1 527775824 -451798708#2"/>
    </vehicle>
    <vehicle id="20" depart="20.00">
        <route edges="701166839 -701166839 527775828#4"/>
    </vehicle>
    <vehicle id="21" depart="21.00">
        <route edges="-527775828#3 -527775828#2 -527775826#1 701166830#0"/>
    </vehicle>
    <vehicle id="22" depart="22.00">
        <route edges="210617558#1 -210617558#1"/>
    </vehicle>
    <vehicle id="23" depart="23.00">
        <route edges="527775828#1 527775828#2 527775828#3 527775828#4"/>
    </vehicle>
    <vehicle id="24" depart="24.00">
        <route edges="701166830#0 -701166830#0 -527775826#0 -210617558#1 210617558#1"/>
    </vehicle>
</routes>
