<?xml version="1.0" encoding="UTF-8"?>

<!-- generated on Wed Apr 29 09:41:43 2020 by Eclipse SUMO duarouter Version 1.5.0
<configuration xmlns:xsi="http://www.w3.org/2001/XMLSchema-instance" xsi:noNamespaceSchemaLocation="http://sumo.dlr.de/xsd/duarouterConfiguration.xsd">

    <input>
        <net-file value="osmfiles/netfiles/mau_sebudi.net.xml"/>
        <additional-files value="osmfiles/netfiles/type.add.xml"/>
        <route-files value="trips.trips.xml"/>
    </input>

    <output>
        <output-file value="osmfiles/roufiles/25.rou.xml"/>
        <alternatives-output value="osmfiles/roufiles/25.rou.alt.xml"/>
    </output>

    <time>
        <begin value="0"/>
        <end value="1.0"/>
    </time>

    <report>
        <no-warnings value="true"/>
        <ignore-errors value="true"/>
        <no-step-log value="true"/>
    </report>

</configuration>
-->

<routes xmlns:xsi="http://www.w3.org/2001/XMLSchema-instance" xsi:noNamespaceSchemaLocation="http://sumo.dlr.de/xsd/routes_file.xsd">
    <vType id="myType" maxSpeed="7.00" vClass="passenger"/>
    <vehicle id="0" type="myType" depart="0.00">
        <route edges="210617558#3 gneE21 gneE22 gneE23 gneE26 gneE27 gneE28 -451798708#1"/>
    </vehicle>
    <vehicle id="1" type="myType" depart="0.04">
        <route edges="-gneE12 -gneE11 -gneE10 -527775828#0 451798708#1 -685526965"/>
    </vehicle>
    <vehicle id="2" type="myType" depart="0.08">
        <route edges="gneE29 gneE31 gneE32 -527775975#0 -451798708#2 -451798708#1 -gneE9 -gneE8 -gneE7 -gneE6"/>
    </vehicle>
    <vehicle id="3" type="myType" depart="0.12">
        <route edges="527775828#3 -527775828#3 701166835 -gneE3 -gneE2 -gneE1 210617558#1 210617558#2 210617558#3 -210617558#3"/>
    </vehicle>
    <vehicle id="4" type="myType" depart="0.16">
        <route edges="gneE11 gneE60 gneE61 -451798708#3"/>
    </vehicle>
    <vehicle id="5" type="myType" depart="0.20">
        <route edges="-527775828#0 -451798708#0 451798708#0"/>
    </vehicle>
    <vehicle id="6" type="myType" depart="0.24">
        <route edges="-gneE8 -gneE7 -gneE6 -gneE5 -gneE4 -701166830#1 701166831 -527775828#0 -gneE9"/>
    </vehicle>
    <vehicle id="7" type="myType" depart="0.28">
        <route edges="685526965 -451798708#1 -451798708#0 210617558#2 gneE24 gneE25"/>
    </vehicle>
    <vehicle id="8" type="myType" depart="0.32">
        <route edges="gneE42 -gneE45 -gneE30 -gneE29 -gneE21 -210617558#3 -210617558#2 -210617558#1 527775826#0"/>
    </vehicle>
    <vehicle id="9" type="myType" depart="0.36">
        <route edges="210617558#1 -210617558#1"/>
    </vehicle>
    <vehicle id="10" type="myType" depart="0.40">
        <route edges="451798708#0 451798708#1 451798708#2 527775975#0"/>
    </vehicle>
    <vehicle id="11" type="myType" depart="0.44">
        <route edges="451798708#1 -451798708#1 527775828#0"/>
    </vehicle>
    <vehicle id="12" type="myType" depart="0.48">
        <route edges="-gneE42 -gneE41 -210617558#5 -210617558#4 -210617558#3 -210617558#2 -210617558#1 gneE1 gneE2 gneE3 -701166835 701166835 -gneE3"/>
    </vehicle>
    <vehicle id="13" type="myType" depart="0.52">
        <route edges="gneE23 -gneE25 -gneE24 210617558#3 gneE21 gneE29 gneE31 gneE32"/>
    </vehicle>
    <vehicle id="14" type="myType" depart="0.56">
        <route edges="-527775828#0 451798708#1 -gneE28 -gneE27 -gneE26 -gneE23 -gneE22 -gneE21 210617558#4 210617558#5 -gneE35"/>
    </vehicle>
    <vehicle id="15" type="myType" depart="0.60">
        <route edges="-685526965 527775975#1 -530135875#1 -530135875#0 -701166838"/>
    </vehicle>
    <vehicle id="16" type="myType" depart="0.64">
        <route edges="gneE28 451798708#2 527775975#0 527775975#1 -530135875#1 -530135875#0 -701166838"/>
    </vehicle>
    <vehicle id="17" type="myType" depart="0.68">
        <route edges="527775828#0 -527775828#0 gneE19 gneE20 -gneE14"/>
    </vehicle>
    <vehicle id="18" type="myType" depart="0.72">
        <route edges="527775826#0 527775826#1 -527775828#1 gneE10 gneE11 gneE60 gneE61 -451798708#3"/>
    </vehicle>
    <vehicle id="19" type="myType" depart="0.76">
        <route edges="-451798708#3 -gneE18 -gneE17 -gneE16 -gneE15 -gneE14 -gneE12 gneE60 gneE61 451798708#4"/>
    </vehicle>
    <vehicle id="20" type="myType" depart="0.80">
        <route edges="-701166831 701166831 527775828#1 527775828#2 -527775828#2"/>
    </vehicle>
    <vehicle id="21" type="myType" depart="0.84">
        <route edges="-527775828#0 -451798708#0 210617558#2 210617558#3"/>
    </vehicle>
    <vehicle id="22" type="myType" depart="0.88">
        <route edges="-527775975#0 451798708#3"/>
    </vehicle>
    <vehicle id="23" type="myType" depart="0.92">
        <route edges="gneE4 gneE5 gneE6 gneE7 gneE8 gneE9 -451798708#0 210617558#2 210617558#3"/>
    </vehicle>
    <vehicle id="24" type="myType" depart="0.96">
        <route edges="-527775975#1 527775975#1 -530135875#1 -gneE43 -gneE42"/>
    </vehicle>
</routes>
