<?xml version="1.0" encoding="UTF-8"?>

<!-- generated on Sun Mar 29 22:43:03 2020 by Eclipse SUMO duarouter Version 1.4.0
<configuration xmlns:xsi="http://www.w3.org/2001/XMLSchema-instance" xsi:noNamespaceSchemaLocation="http://sumo.dlr.de/xsd/duarouterConfiguration.xsd">

    <input>
        <net-file value="osmfiles/netfiles/sebudi_edit4.net.xml"/>
        <additional-files value="osmfiles/netfiles/type.add.xml"/>
        <route-files value="trips.trips.xml"/>
    </input>

    <output>
        <output-file value="osmfiles/roufiles/25.rou.xml"/>
        <alternatives-output value="osmfiles/roufiles/25.rou.alt.xml"/>
    </output>

    <time>
        <begin value="0"/>
        <end value="1.0"/>
    </time>

    <report>
        <no-warnings value="true"/>
        <ignore-errors value="true"/>
        <no-step-log value="true"/>
    </report>

</configuration>
-->

<routes xmlns:xsi="http://www.w3.org/2001/XMLSchema-instance" xsi:noNamespaceSchemaLocation="http://sumo.dlr.de/xsd/routes_file.xsd">
    <vType id="myType" maxSpeed="7.00" vClass="passenger"/>
    <vehicle id="0" type="myType" depart="0.00">
        <route edges="-527775828#2 527775828#2 -gneE6 -gneE8"/>
    </vehicle>
    <vehicle id="1" type="myType" depart="0.04">
        <route edges="-gneE5 -gneE4 527775826#1 527775828#2 527775828#3 527775828#4 -527775824"/>
    </vehicle>
    <vehicle id="2" type="myType" depart="0.08">
        <route edges="-gneE6 -gneE5 gneE7 gneE8"/>
    </vehicle>
    <vehicle id="3" type="myType" depart="0.12">
        <route edges="-gneE5 gneE7"/>
    </vehicle>
    <vehicle id="4" type="myType" depart="0.16">
        <route edges="-527775824 210617558#1 527775826#0 -527775826#0"/>
    </vehicle>
    <vehicle id="5" type="myType" depart="0.20">
        <route edges="-210617558#1 gneE0 527775828#4"/>
    </vehicle>
    <vehicle id="6" type="myType" depart="0.24">
        <route edges="-210617558#1 527775824 -527775828#4"/>
    </vehicle>
    <vehicle id="7" type="myType" depart="0.28">
        <route edges="451798708#2 -527775824"/>
    </vehicle>
    <vehicle id="8" type="myType" depart="0.32">
        <route edges="-gneE0 210617558#1 527775826#0 -527775826#0"/>
    </vehicle>
    <vehicle id="9" type="myType" depart="0.36">
        <route edges="-210617558#1 gneE0"/>
    </vehicle>
    <vehicle id="10" type="myType" depart="0.40">
        <route edges="gneE8 gneE6 -527775828#2 -527775826#1 gneE4 gneE5"/>
    </vehicle>
    <vehicle id="11" type="myType" depart="0.44">
        <route edges="-gneE5 -gneE4 -527775826#0 -210617558#1"/>
    </vehicle>
    <vehicle id="12" type="myType" depart="0.48">
        <route edges="-701166839 -527775828#3 -527775828#2 -527775826#1 -527775826#0 -210617558#1"/>
    </vehicle>
    <vehicle id="13" type="myType" depart="0.52">
        <route edges="451798708#2 -527775828#4 -527775828#3 -527775828#2 -527775826#1"/>
    </vehicle>
    <vehicle id="14" type="myType" depart="0.56">
        <route edges="-527775828#2 -527775826#1 -527775826#0 -210617558#1 gneE0"/>
    </vehicle>
    <vehicle id="15" type="myType" depart="0.60">
        <route edges="527775826#0 -527775826#0 -210617558#1 210617558#1"/>
    </vehicle>
    <vehicle id="16" type="myType" depart="0.64">
        <route edges="210617558#1 527775826#0 527775826#1 527775828#2 527775828#3 -gneE0"/>
    </vehicle>
    <vehicle id="17" type="myType" depart="0.68">
        <route edges="451798708#2 -527775828#4 -527775828#3 -gneE6 -gneE5 gneE7 gneE8"/>
    </vehicle>
    <vehicle id="18" type="myType" depart="0.72">
        <route edges="-gneE0"/>
    </vehicle>
    <vehicle id="19" type="myType" depart="0.76">
        <route edges="gneE0 -527775828#3 -gneE6 -gneE5"/>
    </vehicle>
    <vehicle id="20" type="myType" depart="0.80">
        <route edges="-gneE7 gneE5 gneE6 527775828#3 -gneE0 210617558#1"/>
    </vehicle>
    <vehicle id="21" type="myType" depart="0.84">
        <route edges="527775826#1 527775828#2 527775828#3 -gneE0 210617558#1"/>
    </vehicle>
    <vehicle id="22" type="myType" depart="0.88">
        <route edges="-527775828#2 527775828#2 527775828#3 -gneE0"/>
    </vehicle>
    <vehicle id="23" type="myType" depart="0.92">
        <route edges="-gneE0 210617558#1 -210617558#1"/>
    </vehicle>
    <vehicle id="24" type="myType" depart="0.96">
        <route edges="-210617558#1 527775824"/>
    </vehicle>
</routes>
