<?xml version="1.0" encoding="UTF-8"?>

<!-- generated on Sun Mar 29 22:43:30 2020 by Eclipse SUMO duarouter Version 1.4.0
<configuration xmlns:xsi="http://www.w3.org/2001/XMLSchema-instance" xsi:noNamespaceSchemaLocation="http://sumo.dlr.de/xsd/duarouterConfiguration.xsd">

    <input>
        <net-file value="osmfiles/netfiles/sebudi_edit4.net.xml"/>
        <additional-files value="osmfiles/netfiles/type.add.xml"/>
        <route-files value="trips.trips.xml"/>
    </input>

    <output>
        <output-file value="osmfiles/roufiles/65.rou.xml"/>
        <alternatives-output value="osmfiles/roufiles/65.rou.alt.xml"/>
    </output>

    <time>
        <begin value="0"/>
        <end value="1.0"/>
    </time>

    <report>
        <no-warnings value="true"/>
        <ignore-errors value="true"/>
        <no-step-log value="true"/>
    </report>

</configuration>
-->

<routes xmlns:xsi="http://www.w3.org/2001/XMLSchema-instance" xsi:noNamespaceSchemaLocation="http://sumo.dlr.de/xsd/routes_file.xsd">
    <vType id="myType" maxSpeed="7.00" vClass="passenger"/>
    <vehicle id="0" type="myType" depart="0.00">
        <route edges="210617558#1 527775826#0 gneE4 gneE5 -gneE8"/>
    </vehicle>
    <vehicle id="1" type="myType" depart="0.02">
        <route edges="210617558#1 527775826#0 gneE4 gneE7 gneE8"/>
    </vehicle>
    <vehicle id="2" type="myType" depart="0.03">
        <route edges="210617558#1 527775826#0 527775826#1 527775828#2 527775828#3 -gneE0"/>
    </vehicle>
    <vehicle id="3" type="myType" depart="0.05">
        <route edges="527775824 -527775824"/>
    </vehicle>
    <vehicle id="4" type="myType" depart="0.06">
        <route edges="210617558#1 527775826#0 527775826#1 527775828#2 527775828#3 527775828#4 -527775828#4"/>
    </vehicle>
    <vehicle id="5" type="myType" depart="0.08">
        <route edges="gneE0 -527775828#3 -gneE6 -gneE5 gneE7 gneE8"/>
    </vehicle>
    <vehicle id="6" type="myType" depart="0.09">
        <route edges="gneE7 gneE8 gneE6 527775828#3 527775828#4 -527775824 gneE0"/>
    </vehicle>
    <vehicle id="7" type="myType" depart="0.11">
        <route edges="451798708#2 -527775828#4 -527775828#3 -gneE6 -gneE5 gneE7 gneE8"/>
    </vehicle>
    <vehicle id="8" type="myType" depart="0.12">
        <route edges="527775828#2 -gneE6 -gneE5 -gneE4 -527775826#0 -210617558#1"/>
    </vehicle>
    <vehicle id="9" type="myType" depart="0.14">
        <route edges="-527775826#0 -210617558#1"/>
    </vehicle>
    <vehicle id="10" type="myType" depart="0.15">
        <route edges="-gneE0 527775824 -527775824 gneE0"/>
    </vehicle>
    <vehicle id="11" type="myType" depart="0.17">
        <route edges="-210617558#1 527775824 -527775824"/>
    </vehicle>
    <vehicle id="12" type="myType" depart="0.18">
        <route edges="527775826#0 527775826#1 527775828#2 527775828#3 -gneE0"/>
    </vehicle>
    <vehicle id="13" type="myType" depart="0.20">
        <route edges="-gneE0 527775824 -527775828#4 701166839 451798708#2"/>
    </vehicle>
    <vehicle id="14" type="myType" depart="0.22">
        <route edges="210617558#1 527775826#0 527775826#1 527775828#2 527775828#3 527775828#4 -527775824"/>
    </vehicle>
    <vehicle id="15" type="myType" depart="0.23">
        <route edges="-527775828#2 -527775826#1 -527775826#0 -210617558#1"/>
    </vehicle>
    <vehicle id="16" type="myType" depart="0.25">
        <route edges="-gneE8 -gneE7 -gneE4 527775826#1 527775828#2 -gneE6 -gneE5"/>
    </vehicle>
    <vehicle id="17" type="myType" depart="0.26">
        <route edges="-210617558#1 210617558#1"/>
    </vehicle>
    <vehicle id="18" type="myType" depart="0.28">
        <route edges="-gneE7 gneE5 gneE6 527775828#3 527775828#4 -527775824"/>
    </vehicle>
    <vehicle id="19" type="myType" depart="0.29">
        <route edges="-gneE0 527775824 -527775824 gneE0"/>
    </vehicle>
    <vehicle id="20" type="myType" depart="0.31">
        <route edges="-gneE6 -gneE5 -gneE4 -527775826#0 -210617558#1"/>
    </vehicle>
    <vehicle id="21" type="myType" depart="0.32">
        <route edges="210617558#1 -210617558#1"/>
    </vehicle>
    <vehicle id="22" type="myType" depart="0.34">
        <route edges="-527775826#0 527775826#0 gneE4 gneE5 -gneE8"/>
    </vehicle>
    <vehicle id="23" type="myType" depart="0.35">
        <route edges="-gneE8 -gneE7 gneE5 gneE6 527775828#3 527775828#4 -527775824"/>
    </vehicle>
    <vehicle id="24" type="myType" depart="0.37">
        <route edges="527775828#4 -527775828#4 -527775828#3 -gneE6 -gneE8"/>
    </vehicle>
    <vehicle id="25" type="myType" depart="0.38">
        <route edges="-210617558#1 210617558#1 527775826#0 gneE4 gneE7 gneE8"/>
    </vehicle>
    <vehicle id="26" type="myType" depart="0.40">
        <route edges="-527775826#0 527775826#0 527775826#1 527775828#2 527775828#3 527775828#4 -527775824"/>
    </vehicle>
    <vehicle id="27" type="myType" depart="0.42">
        <route edges="-527775828#4 -527775828#3 -gneE6"/>
    </vehicle>
    <vehicle id="28" type="myType" depart="0.43">
        <route edges="-gneE0 527775824 -527775828#4 701166839 451798708#2"/>
    </vehicle>
    <vehicle id="29" type="myType" depart="0.45">
        <route edges="210617558#1 527775826#0 gneE4 gneE5 -gneE8 -gneE7"/>
    </vehicle>
    <vehicle id="30" type="myType" depart="0.46">
        <route edges="-210617558#1 527775824 -527775828#4 -gneE0"/>
    </vehicle>
    <vehicle id="31" type="myType" depart="0.48">
        <route edges="-210617558#1 gneE0 527775828#4"/>
    </vehicle>
    <vehicle id="32" type="myType" depart="0.49">
        <route edges="gneE6 527775828#3 527775828#4 -451798708#2"/>
    </vehicle>
    <vehicle id="33" type="myType" depart="0.51">
        <route edges="gneE0 527775828#4 -527775824 527775824"/>
    </vehicle>
    <vehicle id="34" type="myType" depart="0.52">
        <route edges="451798708#2"/>
    </vehicle>
    <vehicle id="35" type="myType" depart="0.54">
        <route edges="-gneE7 gneE5 gneE6 527775828#3 -gneE0"/>
    </vehicle>
    <vehicle id="36" type="myType" depart="0.55">
        <route edges="-527775828#2 527775828#2 -gneE6 -gneE8 -gneE7"/>
    </vehicle>
    <vehicle id="37" type="myType" depart="0.57">
        <route edges="gneE0 527775828#4 -527775824"/>
    </vehicle>
    <vehicle id="38" type="myType" depart="0.58">
        <route edges="-210617558#1 gneE0 701166839 451798708#2"/>
    </vehicle>
    <vehicle id="39" type="myType" depart="0.60">
        <route edges="-527775824 210617558#1 527775826#0 -527775826#0"/>
    </vehicle>
    <vehicle id="40" type="myType" depart="0.62">
        <route edges="gneE7 gneE8 gneE6 527775828#3 527775828#4"/>
    </vehicle>
    <vehicle id="41" type="myType" depart="0.63">
        <route edges="-gneE8 -gneE7 -gneE4 527775826#1 -527775826#1 gneE4 gneE7 gneE8"/>
    </vehicle>
    <vehicle id="42" type="myType" depart="0.65">
        <route edges="-210617558#1 gneE0"/>
    </vehicle>
    <vehicle id="43" type="myType" depart="0.66">
        <route edges="527775828#2 -gneE6 -gneE5 -gneE4 527775826#1"/>
    </vehicle>
    <vehicle id="44" type="myType" depart="0.68">
        <route edges="527775826#0 527775826#1 527775828#2 527775828#3 701166839 451798708#2"/>
    </vehicle>
    <vehicle id="45" type="myType" depart="0.69">
        <route edges="-527775828#2"/>
    </vehicle>
    <vehicle id="46" type="myType" depart="0.71">
        <route edges="-210617558#1 gneE0 -527775828#3 -527775828#2"/>
    </vehicle>
    <vehicle id="47" type="myType" depart="0.72">
        <route edges="gneE7 gneE8 gneE6 527775828#3 -gneE0 210617558#1"/>
    </vehicle>
    <vehicle id="48" type="myType" depart="0.74">
        <route edges="-gneE5 -gneE4 -527775826#0 -210617558#1"/>
    </vehicle>
    <vehicle id="49" type="myType" depart="0.75">
        <route edges="-527775826#0 -210617558#1 gneE0"/>
    </vehicle>
    <vehicle id="50" type="myType" depart="0.77">
        <route edges="gneE6 527775828#3 -527775828#3 -gneE6 -gneE8"/>
    </vehicle>
    <vehicle id="51" type="myType" depart="0.78">
        <route edges="gneE7 gneE8 gneE6 527775828#3 527775828#4 -527775824 gneE0"/>
    </vehicle>
    <vehicle id="52" type="myType" depart="0.80">
        <route edges="-gneE7 gneE5 gneE6 527775828#3 701166839"/>
    </vehicle>
    <vehicle id="53" type="myType" depart="0.82">
        <route edges="210617558#1 527775826#0 527775826#1 527775828#2 527775828#3 -gneE0"/>
    </vehicle>
    <vehicle id="54" type="myType" depart="0.83">
        <route edges="-527775828#4 -527775828#3 -527775828#2 -527775826#1 -527775826#0 527775826#0"/>
    </vehicle>
    <vehicle id="55" type="myType" depart="0.85">
        <route edges="210617558#1 527775826#0 gneE4 gneE5 -gneE8"/>
    </vehicle>
    <vehicle id="56" type="myType" depart="0.86">
        <route edges="210617558#1 527775826#0 gneE4 gneE5 gneE6 -527775828#2"/>
    </vehicle>
    <vehicle id="57" type="myType" depart="0.88">
        <route edges="451798708#2 -527775828#4 -527775828#3 -527775828#2 -527775826#1 gneE4 gneE5 gneE6"/>
    </vehicle>
    <vehicle id="58" type="myType" depart="0.89">
        <route edges="210617558#1 527775826#0 527775826#1 -527775826#1"/>
    </vehicle>
    <vehicle id="59" type="myType" depart="0.91">
        <route edges="-gneE8 -gneE7 -gneE4 -527775826#0"/>
    </vehicle>
    <vehicle id="60" type="myType" depart="0.92">
        <route edges="-451798708#2 -701166839 -527775828#3 -527775828#2 -527775826#1 -527775826#0"/>
    </vehicle>
    <vehicle id="61" type="myType" depart="0.94">
        <route edges="210617558#1 527775826#0 527775826#1 527775828#2 527775828#3 701166839 451798708#2"/>
    </vehicle>
    <vehicle id="62" type="myType" depart="0.95">
        <route edges="-210617558#1 527775824"/>
    </vehicle>
    <vehicle id="63" type="myType" depart="0.97">
        <route edges="210617558#1 527775826#0 527775826#1 527775828#2 527775828#3 527775828#4"/>
    </vehicle>
    <vehicle id="64" type="myType" depart="0.98">
        <route edges="-527775828#2 -527775826#1 -527775826#0 -210617558#1 gneE0"/>
    </vehicle>
</routes>
