<?xml version="1.0" encoding="UTF-8"?>

<!-- generated on Mon Mar  9 18:32:12 2020 by Eclipse SUMO duarouter Version 1.4.0
<configuration xmlns:xsi="http://www.w3.org/2001/XMLSchema-instance" xsi:noNamespaceSchemaLocation="http://sumo.dlr.de/xsd/duarouterConfiguration.xsd">

    <input>
        <net-file value="osmfiles/netfiles/sebudi_edit.net.xml"/>
        <additional-files value="osmfiles/netfiles/rerouter.add.xml"/>
        <route-files value="trips.trips.xml"/>
    </input>

    <output>
        <output-file value="osmfiles/roufiles/80.rou.xml"/>
        <alternatives-output value="osmfiles/roufiles/80.rou.alt.xml"/>
    </output>

    <time>
        <begin value="0"/>
        <end value="1.0"/>
    </time>

    <report>
        <no-warnings value="true"/>
        <ignore-errors value="true"/>
        <no-step-log value="true"/>
    </report>

</configuration>
-->

<routes xmlns:xsi="http://www.w3.org/2001/XMLSchema-instance" xsi:noNamespaceSchemaLocation="http://sumo.dlr.de/xsd/routes_file.xsd">
    <vehicle id="0" depart="0.00">
        <route edges="-527775828#0 527775828#0 527775828#1 527775828#2 527775828#3 701166839 -451798708#1"/>
    </vehicle>
    <vehicle id="1" depart="0.01">
        <route edges="527775824 -527775828#4 -527775828#3 527775828#3"/>
    </vehicle>
    <vehicle id="2" depart="0.03">
        <route edges="-451798708#1"/>
    </vehicle>
    <vehicle id="3" depart="0.04">
        <route edges="-451798708#1 451798708#1"/>
    </vehicle>
    <vehicle id="4" depart="0.05">
        <route edges="-701166830#0 -527775826#0 210617558#2 -210617558#2"/>
    </vehicle>
    <vehicle id="5" depart="0.06">
        <route edges="-210617558#2 210617558#2"/>
    </vehicle>
    <vehicle id="6" depart="0.07">
        <route edges="527775828#3 -527775828#3 -527775828#2 -527775826#1 -527775826#0 210617558#2 451798708#0"/>
    </vehicle>
    <vehicle id="7" depart="0.09">
        <route edges="451798708#1 -451798708#1"/>
    </vehicle>
    <vehicle id="8" depart="0.10">
        <route edges="-527775824 527775824 -527775828#4 701166839 -451798708#1"/>
    </vehicle>
    <vehicle id="9" depart="0.11">
        <route edges="527775826#0 527775826#1 -527775828#1 -527775828#0 527775828#0"/>
    </vehicle>
    <vehicle id="10" depart="0.12">
        <route edges="-527775828#4 -527775828#3 -527775828#2 -527775828#1 -527775828#0 451798708#1"/>
    </vehicle>
    <vehicle id="11" depart="0.14">
        <route edges="-527775828#4 527775828#4 -527775824 527775824"/>
    </vehicle>
    <vehicle id="12" depart="0.15">
        <route edges="527775828#0 527775828#1 527775828#2"/>
    </vehicle>
    <vehicle id="13" depart="0.16">
        <route edges="-451798708#2 -451798708#1"/>
    </vehicle>
    <vehicle id="14" depart="0.18">
        <route edges="451798708#0 527775828#0 527775828#1 527775828#2 527775828#3 701166839 -701166839"/>
    </vehicle>
    <vehicle id="15" depart="0.19">
        <route edges="-451798708#1 451798708#1"/>
    </vehicle>
    <vehicle id="16" depart="0.20">
        <route edges="-210617558#2 527775826#0 527775826#1 -527775828#1 -527775828#0"/>
    </vehicle>
    <vehicle id="17" depart="0.21">
        <route edges="451798708#0 527775828#0 -527775828#0"/>
    </vehicle>
    <vehicle id="18" depart="0.23">
        <route edges="527775828#0 -527775828#0 451798708#1"/>
    </vehicle>
    <vehicle id="19" depart="0.24">
        <route edges="451798708#1"/>
    </vehicle>
    <vehicle id="20" depart="0.25">
        <route edges="210617558#2 -210617558#2 527775826#0 527775826#1 -527775828#1 -527775828#0"/>
    </vehicle>
    <vehicle id="21" depart="0.26">
        <route edges="451798708#1 -451798708#1"/>
    </vehicle>
    <vehicle id="22" depart="0.28">
        <route edges="210617558#1 -210617558#1 527775824 -527775828#4"/>
    </vehicle>
    <vehicle id="23" depart="0.29">
        <route edges="451798708#1 -701166839 -527775828#3 -527775828#2 -527775828#1 -527775828#0 -451798708#0"/>
    </vehicle>
    <vehicle id="24" depart="0.30">
        <route edges="-451798708#1"/>
    </vehicle>
    <vehicle id="25" depart="0.31">
        <route edges="451798708#0"/>
    </vehicle>
    <vehicle id="26" depart="0.33">
        <route edges="210617558#2 -210617558#2 527775826#0 527775826#1 -527775828#1 -527775828#0"/>
    </vehicle>
    <vehicle id="27" depart="0.34">
        <route edges="701166839 -701166839 -527775828#3 -527775828#2 -527775826#1"/>
    </vehicle>
    <vehicle id="28" depart="0.35">
        <route edges="527775828#0 527775828#1 -527775826#1 -527775826#0 210617558#2"/>
    </vehicle>
    <vehicle id="29" depart="0.36">
        <route edges="-451798708#1 451798708#1"/>
    </vehicle>
    <vehicle id="30" depart="0.38">
        <route edges="451798708#1 -701166839 -527775828#3 -527775828#2 -527775828#1 -527775828#0 527775828#0"/>
    </vehicle>
    <vehicle id="31" depart="0.39">
        <route edges="-527775826#1 701166830#0 701166831 -527775828#0 527775828#0"/>
    </vehicle>
    <vehicle id="32" depart="0.40">
        <route edges="451798708#1 -701166839 527775828#4"/>
    </vehicle>
    <vehicle id="33" depart="0.41">
        <route edges="210617558#2 -210617558#2 -210617558#1 527775824 -451798708#2"/>
    </vehicle>
    <vehicle id="34" depart="0.43">
        <route edges="451798708#1 -701166839 527775828#4 -451798708#2"/>
    </vehicle>
    <vehicle id="35" depart="0.44">
        <route edges="527775828#0 527775828#1 527775828#2 -527775828#2"/>
    </vehicle>
    <vehicle id="36" depart="0.45">
        <route edges="-451798708#2 -701166839 -527775828#3 -527775828#2 -527775828#1 -527775828#0 451798708#1"/>
    </vehicle>
    <vehicle id="37" depart="0.46">
        <route edges="-701166831 701166831 -527775828#0 451798708#1"/>
    </vehicle>
    <vehicle id="38" depart="0.48">
        <route edges="-527775828#0 527775828#0 527775828#1 -527775826#1 -527775826#0 -210617558#1"/>
    </vehicle>
    <vehicle id="39" depart="0.49">
        <route edges="527775828#0 527775828#1 -527775826#1 -527775826#0 -210617558#1"/>
    </vehicle>
    <vehicle id="40" depart="0.50">
        <route edges="-527775828#0 451798708#1"/>
    </vehicle>
    <vehicle id="41" depart="0.51">
        <route edges="-451798708#1 527775828#0 527775828#1 527775828#2 -527775828#2"/>
    </vehicle>
    <vehicle id="42" depart="0.53">
        <route edges="210617558#1 210617558#2"/>
    </vehicle>
    <vehicle id="43" depart="0.54">
        <route edges="-527775826#0 210617558#2 -210617558#2"/>
    </vehicle>
    <vehicle id="44" depart="0.55">
        <route edges="-451798708#1 -451798708#0 451798708#0"/>
    </vehicle>
    <vehicle id="45" depart="0.56">
        <route edges="451798708#1 -451798708#1"/>
    </vehicle>
    <vehicle id="46" depart="0.57">
        <route edges="451798708#2 -527775824 210617558#1 210617558#2 451798708#0"/>
    </vehicle>
    <vehicle id="47" depart="0.59">
        <route edges="-210617558#2"/>
    </vehicle>
    <vehicle id="48" depart="0.60">
        <route edges="-527775828#0 451798708#1"/>
    </vehicle>
    <vehicle id="49" depart="0.61">
        <route edges="527775828#0 -527775828#0 -451798708#0"/>
    </vehicle>
    <vehicle id="50" depart="0.62">
        <route edges="-527775824 210617558#1 527775826#0"/>
    </vehicle>
    <vehicle id="51" depart="0.64">
        <route edges="210617558#1 527775826#0 527775826#1 527775828#2 527775828#3 701166839"/>
    </vehicle>
    <vehicle id="52" depart="0.65">
        <route edges="-210617558#2"/>
    </vehicle>
    <vehicle id="53" depart="0.66">
        <route edges="-451798708#1 527775828#0 -527775828#0"/>
    </vehicle>
    <vehicle id="54" depart="0.67">
        <route edges="-210617558#1 210617558#1 527775826#0 527775826#1 -527775828#1 -527775828#0 -451798708#0"/>
    </vehicle>
    <vehicle id="55" depart="0.69">
        <route edges="451798708#1 -701166839 -527775828#3 -527775828#2 -527775826#1 -527775826#0 210617558#2 451798708#0"/>
    </vehicle>
    <vehicle id="56" depart="0.70">
        <route edges="-451798708#2 -701166839 -527775828#3 -527775828#2 -527775826#1 -527775826#0 210617558#2 -210617558#2"/>
    </vehicle>
    <vehicle id="57" depart="0.71">
        <route edges="210617558#2 -210617558#2 527775826#0 527775826#1 527775828#2 527775828#3 701166839 451798708#2"/>
    </vehicle>
    <vehicle id="58" depart="0.72">
        <route edges="210617558#1 527775826#0 527775826#1 -527775828#1 -527775828#0 451798708#1"/>
    </vehicle>
    <vehicle id="59" depart="0.74">
        <route edges="527775824 -527775828#4 -527775828#3"/>
    </vehicle>
    <vehicle id="60" depart="0.75">
        <route edges="451798708#1 -701166839 527775828#4 -527775824"/>
    </vehicle>
    <vehicle id="61" depart="0.76">
        <route edges="-210617558#2 527775826#0 527775826#1 527775828#2 527775828#3 527775828#4"/>
    </vehicle>
    <vehicle id="62" depart="0.77">
        <route edges="-451798708#1 527775828#0 527775828#1 527775828#2 527775828#3 701166839 451798708#2"/>
    </vehicle>
    <vehicle id="63" depart="0.79">
        <route edges="-210617558#1 210617558#1 527775826#0 527775826#1 -527775828#1 -527775828#0 451798708#1"/>
    </vehicle>
    <vehicle id="64" depart="0.80">
        <route edges="-527775824 210617558#1 527775826#0 527775826#1 -527775828#1 -527775828#0 -451798708#0"/>
    </vehicle>
    <vehicle id="65" depart="0.81">
        <route edges="527775828#0 -527775828#0 451798708#1"/>
    </vehicle>
    <vehicle id="66" depart="0.82">
        <route edges="451798708#1 -701166839 -527775828#3 -527775828#2 -527775828#1 -527775828#0 527775828#0"/>
    </vehicle>
    <vehicle id="67" depart="0.84">
        <route edges="451798708#1 -701166839 527775828#4 -527775824 210617558#1"/>
    </vehicle>
    <vehicle id="68" depart="0.85">
        <route edges="-451798708#1 527775828#0 527775828#1 -527775826#1 -527775826#0 527775826#0"/>
    </vehicle>
    <vehicle id="69" depart="0.86">
        <route edges="-527775824 210617558#1 527775826#0 527775826#1 -527775828#1 -527775828#0 451798708#1"/>
    </vehicle>
    <vehicle id="70" depart="0.87">
        <route edges="-210617558#2 527775826#0 701166830#0 701166831"/>
    </vehicle>
    <vehicle id="71" depart="0.89">
        <route edges="-451798708#1"/>
    </vehicle>
    <vehicle id="72" depart="0.90">
        <route edges="-210617558#2 210617558#2 451798708#0"/>
    </vehicle>
    <vehicle id="73" depart="0.91">
        <route edges="451798708#1 -701166839 -527775828#3 -527775828#2 -527775828#1 -527775828#0"/>
    </vehicle>
    <vehicle id="74" depart="0.92">
        <route edges="210617558#2 -210617558#2 527775826#0 527775826#1"/>
    </vehicle>
    <vehicle id="75" depart="0.94">
        <route edges="-451798708#1 -451798708#0"/>
    </vehicle>
    <vehicle id="76" depart="0.95">
        <route edges="-451798708#1"/>
    </vehicle>
    <vehicle id="77" depart="0.96">
        <route edges="210617558#2 451798708#0 451798708#1"/>
    </vehicle>
    <vehicle id="78" depart="0.97">
        <route edges="210617558#2 -210617558#2 527775826#0 527775826#1 -527775828#1"/>
    </vehicle>
    <vehicle id="79" depart="0.99">
        <route edges="701166830#0 701166831 -527775828#0 451798708#1"/>
    </vehicle>
</routes>
