<?xml version="1.0" encoding="UTF-8"?>

<!-- generated on Tue Apr 28 21:46:35 2020 by Eclipse SUMO netconvert Version 1.4.0
<configuration xmlns:xsi="http://www.w3.org/2001/XMLSchema-instance" xsi:noNamespaceSchemaLocation="http://sumo.dlr.de/xsd/netconvertConfiguration.xsd">

    <input>
        <osm-files value="map_baru.osm"/>
    </input>

    <output>
        <output-file value="linux_map.net.xml"/>
    </output>

    <projection>
        <proj.utm value="true"/>
    </projection>

    <report>
        <aggregate-warnings value="5"/>
    </report>

</configuration>
-->

<net version="1.3" junctionCornerDetail="5" limitTurnSpeed="5.50" xmlns:xsi="http://www.w3.org/2001/XMLSchema-instance" xsi:noNamespaceSchemaLocation="http://sumo.dlr.de/xsd/net_file.xsd">

    <location netOffset="-331212.88,928161.40" convBoundary="0.00,0.00,595.01,707.29" origBoundary="115.467017,-8.393795,115.472433,-8.387400" projParameter="+proj=utm +zone=50 +ellps=WGS84 +datum=WGS84 +units=m +no_defs"/>

    <type id="highway.bridleway" priority="1" numLanes="1" speed="2.78" allow="pedestrian" oneway="1" width="2.00"/>
    <type id="highway.bus_guideway" priority="1" numLanes="1" speed="27.78" allow="bus" oneway="1"/>
    <type id="highway.cycleway" priority="1" numLanes="1" speed="8.33" allow="bicycle" oneway="0" width="1.00"/>
    <type id="highway.footway" priority="1" numLanes="1" speed="2.78" allow="pedestrian" oneway="1" width="2.00"/>
    <type id="highway.ford" priority="1" numLanes="1" speed="2.78" allow="army" oneway="0"/>
    <type id="highway.living_street" priority="2" numLanes="1" speed="2.78" disallow="tram rail_urban rail rail_electric rail_fast ship" oneway="0"/>
    <type id="highway.motorway" priority="14" numLanes="2" speed="39.44" allow="private emergency authority army vip passenger hov taxi bus coach delivery truck trailer motorcycle evehicle custom1 custom2" oneway="1"/>
    <type id="highway.motorway_link" priority="9" numLanes="1" speed="22.22" allow="private emergency authority army vip passenger hov taxi bus coach delivery truck trailer motorcycle evehicle custom1 custom2" oneway="1"/>
    <type id="highway.path" priority="1" numLanes="1" speed="2.78" allow="pedestrian bicycle" oneway="1" width="2.00"/>
    <type id="highway.pedestrian" priority="1" numLanes="1" speed="2.78" allow="pedestrian" oneway="1" width="2.00"/>
    <type id="highway.primary" priority="12" numLanes="2" speed="27.78" disallow="tram rail_urban rail rail_electric rail_fast ship" oneway="0"/>
    <type id="highway.primary_link" priority="7" numLanes="1" speed="22.22" disallow="tram rail_urban rail rail_electric rail_fast ship" oneway="0"/>
    <type id="highway.raceway" priority="15" numLanes="2" speed="83.33" allow="vip" oneway="0"/>
    <type id="highway.residential" priority="3" numLanes="1" speed="13.89" disallow="tram rail_urban rail rail_electric rail_fast ship" oneway="0"/>
    <type id="highway.secondary" priority="11" numLanes="1" speed="27.78" disallow="tram rail_urban rail rail_electric rail_fast ship" oneway="0"/>
    <type id="highway.secondary_link" priority="6" numLanes="1" speed="22.22" disallow="tram rail_urban rail rail_electric rail_fast ship" oneway="0"/>
    <type id="highway.service" priority="1" numLanes="1" speed="5.56" allow="pedestrian delivery bicycle" oneway="0"/>
    <type id="highway.stairs" priority="1" numLanes="1" speed="1.39" allow="pedestrian" oneway="1" width="2.00"/>
    <type id="highway.step" priority="1" numLanes="1" speed="1.39" allow="pedestrian" oneway="1" width="2.00"/>
    <type id="highway.steps" priority="1" numLanes="1" speed="1.39" allow="pedestrian" oneway="1" width="2.00"/>
    <type id="highway.tertiary" priority="10" numLanes="1" speed="22.22" disallow="tram rail_urban rail rail_electric rail_fast ship" oneway="0"/>
    <type id="highway.tertiary_link" priority="5" numLanes="1" speed="22.22" disallow="tram rail_urban rail rail_electric rail_fast ship" oneway="0"/>
    <type id="highway.track" priority="1" numLanes="1" speed="5.56" disallow="tram rail_urban rail rail_electric rail_fast ship" oneway="0"/>
    <type id="highway.trunk" priority="13" numLanes="2" speed="27.78" disallow="pedestrian bicycle tram rail_urban rail rail_electric rail_fast ship" oneway="0"/>
    <type id="highway.trunk_link" priority="8" numLanes="1" speed="22.22" disallow="pedestrian bicycle tram rail_urban rail rail_electric rail_fast ship" oneway="0"/>
    <type id="highway.unclassified" priority="4" numLanes="1" speed="13.89" disallow="tram rail_urban rail rail_electric rail_fast ship" oneway="0"/>
    <type id="highway.unsurfaced" priority="1" numLanes="1" speed="8.33" disallow="tram rail_urban rail rail_electric rail_fast ship" oneway="0"/>
    <type id="railway.highspeed" priority="21" numLanes="1" speed="69.44" allow="rail_fast" oneway="1"/>
    <type id="railway.light_rail" priority="19" numLanes="1" speed="27.78" allow="rail_urban" oneway="1"/>
    <type id="railway.preserved" priority="16" numLanes="1" speed="27.78" allow="rail" oneway="1"/>
    <type id="railway.rail" priority="20" numLanes="1" speed="44.44" allow="rail" oneway="1"/>
    <type id="railway.subway" priority="18" numLanes="1" speed="27.78" allow="rail_urban" oneway="1"/>
    <type id="railway.tram" priority="17" numLanes="1" speed="13.89" allow="tram" oneway="1"/>

    <edge id=":-102127_0" function="internal">
        <lane id=":-102127_0_0" index="0" disallow="tram rail_urban rail rail_electric rail_fast ship" speed="5.95" length="9.09" shape="395.92,382.56 394.49,380.37 392.82,379.41 390.90,379.67 388.74,381.14"/>
    </edge>
    <edge id=":-102127_1" function="internal">
        <lane id=":-102127_1_0" index="0" disallow="tram rail_urban rail rail_electric rail_fast ship" speed="13.89" length="18.42" shape="395.92,382.56 394.44,378.55 393.25,373.77 392.44,368.90 392.13,364.62"/>
    </edge>
    <edge id=":-102127_2" function="internal">
        <lane id=":-102127_2_0" index="0" disallow="tram rail_urban rail rail_electric rail_fast ship" speed="9.04" length="16.70" shape="395.92,382.56 395.25,378.78 396.13,374.57 398.22,370.66 401.21,367.81"/>
    </edge>
    <edge id=":-102127_3" function="internal">
        <lane id=":-102127_3_0" index="0" disallow="tram rail_urban rail rail_electric rail_fast ship" speed="3.65" length="4.67" shape="395.92,382.56 396.14,381.13 396.69,380.43 397.59,380.45 398.82,381.20"/>
    </edge>
    <edge id=":-102127_4" function="internal">
        <lane id=":-102127_4_0" index="0" disallow="tram rail_urban rail rail_electric rail_fast ship" speed="7.94" length="12.69" shape="402.90,370.53 400.01,372.84 398.37,375.39 397.97,378.18 398.82,381.20"/>
    </edge>
    <edge id=":-102127_5" function="internal">
        <lane id=":-102127_5_0" index="0" disallow="tram rail_urban rail rail_electric rail_fast ship" speed="13.89" length="17.71" shape="402.90,370.53 399.42,372.83 395.62,375.56 391.92,378.43 388.74,381.14"/>
    </edge>
    <edge id=":-102127_6" function="internal">
        <lane id=":-102127_6_0" index="0" disallow="tram rail_urban rail rail_electric rail_fast ship" speed="7.39" length="6.30" shape="402.90,370.53 398.24,372.66 397.07,372.56"/>
    </edge>
    <edge id=":-102127_7" function="internal">
        <lane id=":-102127_7_0" index="0" disallow="tram rail_urban rail rail_electric rail_fast ship" speed="3.65" length="2.34" shape="402.90,370.53 401.46,370.49 400.70,370.02"/>
    </edge>
    <edge id=":-102127_16" function="internal">
        <lane id=":-102127_16_0" index="0" disallow="tram rail_urban rail rail_electric rail_fast ship" speed="7.39" length="10.69" shape="397.07,372.56 394.88,372.38 392.85,369.71 392.13,364.62"/>
    </edge>
    <edge id=":-102127_17" function="internal">
        <lane id=":-102127_17_0" index="0" disallow="tram rail_urban rail rail_electric rail_fast ship" speed="3.65" length="2.34" shape="400.70,370.02 400.61,369.13 401.21,367.81"/>
    </edge>
    <edge id=":-102127_8" function="internal">
        <lane id=":-102127_8_0" index="0" disallow="tram rail_urban rail rail_electric rail_fast ship" speed="5.64" length="9.27" shape="395.33,364.59 395.72,367.37 396.83,368.83 398.66,368.98 401.21,367.81"/>
    </edge>
    <edge id=":-102127_9" function="internal">
        <lane id=":-102127_9_0" index="0" disallow="tram rail_urban rail rail_electric rail_fast ship" speed="13.89" length="17.07" shape="395.33,364.59 395.60,368.66 396.30,373.07 397.38,377.40 398.82,381.20"/>
    </edge>
    <edge id=":-102127_10" function="internal">
        <lane id=":-102127_10_0" index="0" disallow="tram rail_urban rail rail_electric rail_fast ship" speed="13.31" length="18.14" shape="395.33,364.59 394.79,368.95 393.31,373.67 391.19,378.00 388.74,381.14"/>
    </edge>
    <edge id=":-102127_11" function="internal">
        <lane id=":-102127_11_0" index="0" disallow="tram rail_urban rail rail_electric rail_fast ship" speed="3.65" length="4.67" shape="395.33,364.59 394.54,365.80 393.75,366.21 392.94,365.82 392.13,364.62"/>
    </edge>
    <edge id=":-102127_12" function="internal">
        <lane id=":-102127_12_0" index="0" disallow="tram rail_urban rail rail_electric rail_fast ship" speed="12.39" length="15.66" shape="386.58,378.78 389.04,375.96 390.79,372.66 391.82,368.88 392.13,364.62"/>
    </edge>
    <edge id=":-102127_13" function="internal">
        <lane id=":-102127_13_0" index="0" disallow="tram rail_urban rail rail_electric rail_fast ship" speed="13.89" length="18.30" shape="386.58,378.78 389.83,376.02 393.69,373.03 397.65,370.17 401.21,367.81"/>
    </edge>
    <edge id=":-102127_14" function="internal">
        <lane id=":-102127_14_0" index="0" disallow="tram rail_urban rail rail_electric rail_fast ship" speed="7.57" length="6.69" shape="386.58,378.78 390.26,376.27 392.48,375.97"/>
    </edge>
    <edge id=":-102127_15" function="internal">
        <lane id=":-102127_15_0" index="0" disallow="tram rail_urban rail rail_electric rail_fast ship" speed="3.65" length="2.34" shape="386.58,378.78 388.01,378.56 388.84,378.88"/>
    </edge>
    <edge id=":-102127_18" function="internal">
        <lane id=":-102127_18_0" index="0" disallow="tram rail_urban rail rail_electric rail_fast ship" speed="7.57" length="8.80" shape="392.48,375.97 393.52,375.83 396.38,377.48 398.82,381.20"/>
    </edge>
    <edge id=":-102127_19" function="internal">
        <lane id=":-102127_19_0" index="0" disallow="tram rail_urban rail rail_electric rail_fast ship" speed="3.65" length="2.34" shape="388.84,378.88 389.09,379.74 388.74,381.14"/>
    </edge>
    <edge id=":-102130_0" function="internal">
        <lane id=":-102130_0_0" index="0" disallow="tram rail_urban rail rail_electric rail_fast ship" speed="8.43" length="9.73" shape="435.40,459.06 433.32,458.08 431.09,457.78 428.70,458.15 426.14,459.19"/>
    </edge>
    <edge id=":-102130_1" function="internal">
        <lane id=":-102130_1_0" index="0" disallow="tram rail_urban rail rail_electric rail_fast ship" speed="13.89" length="13.20" shape="435.40,459.06 432.64,456.97 430.49,454.71 428.73,452.11 427.13,449.02"/>
    </edge>
    <edge id=":-102130_2" function="internal">
        <lane id=":-102130_2_0" index="0" disallow="tram rail_urban rail rail_electric rail_fast ship" speed="3.65" length="2.34" shape="435.40,459.06 434.83,457.73 434.94,456.84"/>
    </edge>
    <edge id=":-102130_9" function="internal">
        <lane id=":-102130_9_0" index="0" disallow="tram rail_urban rail rail_electric rail_fast ship" speed="3.65" length="2.34" shape="434.94,456.84 435.71,456.39 437.16,456.39"/>
    </edge>
    <edge id=":-102130_3" function="internal">
        <lane id=":-102130_3_0" index="0" disallow="tram rail_urban rail rail_electric rail_fast ship" speed="13.89" length="11.48" shape="430.02,447.66 431.45,450.55 432.82,452.69 434.58,454.50 437.16,456.39"/>
    </edge>
    <edge id=":-102130_4" function="internal">
        <lane id=":-102130_4_0" index="0" disallow="tram rail_urban rail rail_electric rail_fast ship" speed="8.01" length="5.12" shape="430.02,447.66 431.12,451.24 431.00,452.61"/>
    </edge>
    <edge id=":-102130_5" function="internal">
        <lane id=":-102130_5_0" index="0" disallow="tram rail_urban rail rail_electric rail_fast ship" speed="3.65" length="2.34" shape="430.02,447.66 429.81,449.09 429.25,449.79"/>
    </edge>
    <edge id=":-102130_10" function="internal">
        <lane id=":-102130_10_0" index="0" disallow="tram rail_urban rail rail_electric rail_fast ship" speed="8.01" length="8.63" shape="431.00,452.61 430.84,454.36 429.18,457.01 426.14,459.19"/>
    </edge>
    <edge id=":-102130_11" function="internal">
        <lane id=":-102130_11_0" index="0" disallow="tram rail_urban rail rail_electric rail_fast ship" speed="3.65" length="2.34" shape="429.25,449.79 428.36,449.77 427.13,449.02"/>
    </edge>
    <edge id=":-102130_6" function="internal">
        <lane id=":-102130_6_0" index="0" disallow="tram rail_urban rail rail_electric rail_fast ship" speed="6.51" length="8.75" shape="424.66,456.36 426.59,454.97 427.65,453.28 427.83,451.30 427.13,449.02"/>
    </edge>
    <edge id=":-102130_7" function="internal">
        <lane id=":-102130_7_0" index="0" disallow="tram rail_urban rail rail_electric rail_fast ship" speed="9.72" length="13.14" shape="424.66,456.36 428.04,455.00 431.25,454.55 434.29,455.01 437.16,456.39"/>
    </edge>
    <edge id=":-102130_8" function="internal">
        <lane id=":-102130_8_0" index="0" disallow="tram rail_urban rail rail_electric rail_fast ship" speed="3.65" length="4.67" shape="424.66,456.36 426.09,456.51 426.82,457.04 426.83,457.93 426.14,459.19"/>
    </edge>
    <edge id=":-102137_0" function="internal">
        <lane id=":-102137_0_0" index="0" disallow="tram rail_urban rail rail_electric rail_fast ship" speed="10.97" length="13.14" shape="371.27,9.25 368.82,9.65 366.21,10.94 363.45,13.12 360.54,16.19"/>
    </edge>
    <edge id=":-102137_1" function="internal">
        <lane id=":-102137_1_0" index="0" disallow="tram rail_urban rail rail_electric rail_fast ship" speed="13.89" length="15.65" shape="371.27,9.25 367.43,9.10 363.47,8.80 359.51,8.41 355.68,7.99"/>
    </edge>
    <edge id=":-102137_2" function="internal">
        <lane id=":-102137_2_0" index="0" disallow="tram rail_urban rail rail_electric rail_fast ship" speed="3.65" length="2.34" shape="371.27,9.25 370.09,8.43 369.70,7.62"/>
    </edge>
    <edge id=":-102137_9" function="internal">
        <lane id=":-102137_9_0" index="0" disallow="tram rail_urban rail rail_electric rail_fast ship" speed="3.65" length="2.34" shape="369.70,7.62 370.12,6.83 371.33,6.05"/>
    </edge>
    <edge id=":-102137_3" function="internal">
        <lane id=":-102137_3_0" index="0" disallow="tram rail_urban rail rail_electric rail_fast ship" speed="13.89" length="15.34" shape="356.05,4.81 359.83,5.23 363.68,5.61 367.54,5.90 371.33,6.05"/>
    </edge>
    <edge id=":-102137_4" function="internal">
        <lane id=":-102137_4_0" index="0" disallow="tram rail_urban rail rail_electric rail_fast ship" speed="7.38" length="6.71" shape="356.05,4.81 361.17,6.08 362.21,7.07"/>
    </edge>
    <edge id=":-102137_5" function="internal">
        <lane id=":-102137_5_0" index="0" disallow="tram rail_urban rail rail_electric rail_fast ship" speed="3.65" length="2.34" shape="356.05,4.81 357.15,5.74 357.46,6.58"/>
    </edge>
    <edge id=":-102137_10" function="internal">
        <lane id=":-102137_10_0" index="0" disallow="tram rail_urban rail rail_electric rail_fast ship" speed="7.38" length="10.59" shape="362.21,7.07 363.62,8.40 363.41,11.77 360.54,16.19"/>
    </edge>
    <edge id=":-102137_11" function="internal">
        <lane id=":-102137_11_0" index="0" disallow="tram rail_urban rail rail_electric rail_fast ship" speed="3.65" length="2.34" shape="357.46,6.58 356.97,7.33 355.68,7.99"/>
    </edge>
    <edge id=":-102137_6" function="internal">
        <lane id=":-102137_6_0" index="0" disallow="tram rail_urban rail rail_electric rail_fast ship" speed="5.60" length="9.32" shape="358.10,14.12 359.65,11.74 359.76,9.92 358.44,8.67 355.68,7.99"/>
    </edge>
    <edge id=":-102137_7" function="internal">
        <lane id=":-102137_7_0" index="0" disallow="tram rail_urban rail rail_electric rail_fast ship" speed="12.05" length="15.97" shape="358.10,14.12 361.54,10.55 364.89,8.01 368.15,6.51 371.33,6.05"/>
    </edge>
    <edge id=":-102137_8" function="internal">
        <lane id=":-102137_8_0" index="0" disallow="tram rail_urban rail rail_electric rail_fast ship" speed="3.65" length="4.67" shape="358.10,14.12 359.49,13.73 360.36,13.94 360.71,14.76 360.54,16.19"/>
    </edge>
    <edge id=":-102138_0" function="internal">
        <lane id=":-102138_0_0" index="0" disallow="tram rail_urban rail rail_electric rail_fast ship" speed="3.91" length="2.46" shape="416.09,11.60 415.97,10.94 415.66,10.47 415.18,10.18 414.52,10.07"/>
    </edge>
    <edge id=":-102138_1" function="internal">
        <lane id=":-102138_1_0" index="0" disallow="tram rail_urban rail rail_electric rail_fast ship" speed="6.09" length="7.38" shape="414.58,6.87 416.56,7.19 418.01,8.06 418.92,9.48 419.29,11.45"/>
    </edge>
    <edge id=":-102139_0" function="internal">
        <lane id=":-102139_0_0" index="0" disallow="tram rail_urban rail rail_electric rail_fast ship" speed="6.57" length="7.54" shape="235.87,482.38 234.44,480.96 232.85,480.21 231.09,480.11 229.16,480.67"/>
    </edge>
    <edge id=":-102139_1" function="internal">
        <lane id=":-102139_1_0" index="0" disallow="tram rail_urban rail rail_electric rail_fast ship" speed="8.16" length="11.81" shape="235.87,482.38 234.29,479.65 233.76,476.93 234.26,474.21 235.81,471.50"/>
    </edge>
    <edge id=":-102139_2" function="internal">
        <lane id=":-102139_2_0" index="0" disallow="tram rail_urban rail rail_electric rail_fast ship" speed="3.65" length="4.67" shape="235.87,482.38 235.77,480.94 236.16,480.14 237.04,479.97 238.41,480.43"/>
    </edge>
    <edge id=":-102139_3" function="internal">
        <lane id=":-102139_3_0" index="0" disallow="tram rail_urban rail rail_electric rail_fast ship" speed="6.66" length="7.59" shape="238.35,473.44 237.36,475.18 237.04,476.92 237.39,478.68 238.41,480.43"/>
    </edge>
    <edge id=":-102139_4" function="internal">
        <lane id=":-102139_4_0" index="0" disallow="tram rail_urban rail rail_electric rail_fast ship" speed="13.89" length="11.86" shape="238.35,473.44 236.28,475.96 234.34,477.79 232.10,479.24 229.16,480.67"/>
    </edge>
    <edge id=":-102139_5" function="internal">
        <lane id=":-102139_5_0" index="0" disallow="tram rail_urban rail rail_electric rail_fast ship" speed="3.65" length="2.34" shape="238.35,473.44 236.99,473.91 236.11,473.74"/>
    </edge>
    <edge id=":-102139_9" function="internal">
        <lane id=":-102139_9_0" index="0" disallow="tram rail_urban rail rail_electric rail_fast ship" speed="3.65" length="2.34" shape="236.11,473.74 235.71,472.94 235.81,471.50"/>
    </edge>
    <edge id=":-102139_6" function="internal">
        <lane id=":-102139_6_0" index="0" disallow="tram rail_urban rail rail_electric rail_fast ship" speed="13.89" length="10.28" shape="227.87,477.74 230.62,476.47 232.42,475.35 233.93,473.87 235.81,471.50"/>
    </edge>
    <edge id=":-102139_7" function="internal">
        <lane id=":-102139_7_0" index="0" disallow="tram rail_urban rail rail_electric rail_fast ship" speed="8.08" length="4.93" shape="227.87,477.74 230.90,476.86 232.68,476.96"/>
    </edge>
    <edge id=":-102139_8" function="internal">
        <lane id=":-102139_8_0" index="0" disallow="tram rail_urban rail rail_electric rail_fast ship" speed="3.65" length="2.34" shape="227.87,477.74 229.29,477.99 229.98,478.56"/>
    </edge>
    <edge id=":-102139_10" function="internal">
        <lane id=":-102139_10_0" index="0" disallow="tram rail_urban rail rail_electric rail_fast ship" speed="8.08" length="6.92" shape="232.68,476.96 233.67,477.02 236.17,478.21 238.41,480.43"/>
    </edge>
    <edge id=":-102139_11" function="internal">
        <lane id=":-102139_11_0" index="0" disallow="tram rail_urban rail rail_electric rail_fast ship" speed="3.65" length="2.34" shape="229.98,478.56 229.94,479.45 229.16,480.67"/>
    </edge>
    <edge id=":-102140_0" function="internal">
        <lane id=":-102140_0_0" index="0" disallow="tram rail_urban rail rail_electric rail_fast ship" speed="12.16" length="9.65" shape="253.24,458.52 250.54,459.40 248.79,460.33 247.35,461.70 245.59,463.93"/>
    </edge>
    <edge id=":-102140_1" function="internal">
        <lane id=":-102140_1_0" index="0" disallow="tram rail_urban rail rail_electric rail_fast ship" speed="8.57" length="4.69" shape="253.24,458.52 250.31,458.98 248.60,458.72"/>
    </edge>
    <edge id=":-102140_2" function="internal">
        <lane id=":-102140_2_0" index="0" disallow="tram rail_urban rail rail_electric rail_fast ship" speed="3.65" length="2.34" shape="253.24,458.52 251.86,458.09 251.25,457.44"/>
    </edge>
    <edge id=":-102140_9" function="internal">
        <lane id=":-102140_9_0" index="0" disallow="tram rail_urban rail rail_electric rail_fast ship" speed="8.57" length="6.87" shape="248.60,458.72 247.62,458.57 245.17,457.27 242.95,455.10"/>
    </edge>
    <edge id=":-102140_10" function="internal">
        <lane id=":-102140_10_0" index="0" disallow="tram rail_urban rail rail_electric rail_fast ship" speed="3.65" length="2.34" shape="251.25,457.44 251.40,456.56 252.33,455.45"/>
    </edge>
    <edge id=":-102140_3" function="internal">
        <lane id=":-102140_3_0" index="0" disallow="tram rail_urban rail rail_electric rail_fast ship" speed="7.12" length="7.76" shape="245.45,453.09 246.95,454.57 248.59,455.46 250.38,455.75 252.33,455.45"/>
    </edge>
    <edge id=":-102140_4" function="internal">
        <lane id=":-102140_4_0" index="0" disallow="tram rail_urban rail rail_electric rail_fast ship" speed="8.08" length="11.81" shape="245.45,453.09 247.07,455.78 247.63,458.49 247.14,461.20 245.59,463.93"/>
    </edge>
    <edge id=":-102140_5" function="internal">
        <lane id=":-102140_5_0" index="0" disallow="tram rail_urban rail rail_electric rail_fast ship" speed="3.65" length="4.67" shape="245.45,453.09 245.57,454.53 245.20,455.34 244.33,455.53 242.95,455.10"/>
    </edge>
    <edge id=":-102140_6" function="internal">
        <lane id=":-102140_6_0" index="0" disallow="tram rail_urban rail rail_electric rail_fast ship" speed="6.57" length="7.51" shape="243.04,461.99 244.03,460.26 244.34,458.53 243.98,456.81 242.95,455.10"/>
    </edge>
    <edge id=":-102140_7" function="internal">
        <lane id=":-102140_7_0" index="0" disallow="tram rail_urban rail rail_electric rail_fast ship" speed="13.32" length="11.63" shape="243.04,461.99 245.09,459.49 247.02,457.76 249.28,456.51 252.33,455.45"/>
    </edge>
    <edge id=":-102140_8" function="internal">
        <lane id=":-102140_8_0" index="0" disallow="tram rail_urban rail rail_electric rail_fast ship" speed="3.65" length="2.34" shape="243.04,461.99 244.40,461.52 245.28,461.69"/>
    </edge>
    <edge id=":-102140_11" function="internal">
        <lane id=":-102140_11_0" index="0" disallow="tram rail_urban rail rail_electric rail_fast ship" speed="3.65" length="2.34" shape="245.28,461.69 245.68,462.49 245.59,463.93"/>
    </edge>
    <edge id=":-102145_0" function="internal">
        <lane id=":-102145_0_0" index="0" disallow="tram rail_urban rail rail_electric rail_fast ship" speed="13.89" length="10.93" shape="516.19,516.21 514.88,513.36 513.65,511.35 512.02,509.69 509.49,507.87"/>
    </edge>
    <edge id=":-102145_1" function="internal">
        <lane id=":-102145_1_0" index="0" disallow="tram rail_urban rail rail_electric rail_fast ship" speed="8.02" length="5.03" shape="516.19,516.21 515.22,512.77 515.36,511.32"/>
    </edge>
    <edge id=":-102145_2" function="internal">
        <lane id=":-102145_2_0" index="0" disallow="tram rail_urban rail rail_electric rail_fast ship" speed="3.65" length="2.34" shape="516.19,516.21 516.44,514.78 517.01,514.10"/>
    </edge>
    <edge id=":-102145_9" function="internal">
        <lane id=":-102145_9_0" index="0" disallow="tram rail_urban rail rail_electric rail_fast ship" speed="8.02" length="8.16" shape="515.36,511.32 515.52,509.76 517.08,507.17 519.92,505.00"/>
    </edge>
    <edge id=":-102145_10" function="internal">
        <lane id=":-102145_10_0" index="0" disallow="tram rail_urban rail rail_electric rail_fast ship" speed="3.65" length="2.34" shape="517.01,514.10 517.90,514.14 519.12,514.92"/>
    </edge>
    <edge id=":-102145_3" function="internal">
        <lane id=":-102145_3_0" index="0" disallow="tram rail_urban rail rail_electric rail_fast ship" speed="6.53" length="8.39" shape="521.49,507.78 519.69,509.16 518.69,510.81 518.50,512.73 519.12,514.92"/>
    </edge>
    <edge id=":-102145_4" function="internal">
        <lane id=":-102145_4_0" index="0" disallow="tram rail_urban rail rail_electric rail_fast ship" speed="9.37" length="12.66" shape="521.49,507.78 518.29,509.17 515.23,509.65 512.30,509.21 509.49,507.87"/>
    </edge>
    <edge id=":-102145_5" function="internal">
        <lane id=":-102145_5_0" index="0" disallow="tram rail_urban rail rail_electric rail_fast ship" speed="3.65" length="4.67" shape="521.49,507.78 520.05,507.68 519.31,507.18 519.26,506.28 519.92,505.00"/>
    </edge>
    <edge id=":-102145_6" function="internal">
        <lane id=":-102145_6_0" index="0" disallow="tram rail_urban rail rail_electric rail_fast ship" speed="8.04" length="9.14" shape="511.25,505.19 513.24,506.13 515.34,506.41 517.57,506.03 519.92,505.00"/>
    </edge>
    <edge id=":-102145_7" function="internal">
        <lane id=":-102145_7_0" index="0" disallow="tram rail_urban rail rail_electric rail_fast ship" speed="13.89" length="12.72" shape="511.25,505.19 513.96,507.23 516.00,509.37 517.63,511.85 519.12,514.92"/>
    </edge>
    <edge id=":-102145_8" function="internal">
        <lane id=":-102145_8_0" index="0" disallow="tram rail_urban rail rail_electric rail_fast ship" speed="3.65" length="2.34" shape="511.25,505.19 511.82,506.52 511.71,507.41"/>
    </edge>
    <edge id=":-102145_11" function="internal">
        <lane id=":-102145_11_0" index="0" disallow="tram rail_urban rail rail_electric rail_fast ship" speed="3.65" length="2.34" shape="511.71,507.41 510.94,507.86 509.49,507.87"/>
    </edge>
    <edge id=":-102147_0" function="internal">
        <lane id=":-102147_0_0" index="0" disallow="tram rail_urban rail rail_electric rail_fast ship" speed="13.89" length="19.06" shape="103.69,223.30 101.91,219.28 99.39,214.78 96.49,210.53 93.60,207.27"/>
    </edge>
    <edge id=":-102147_1" function="internal">
        <lane id=":-102147_1_0" index="0" disallow="tram rail_urban rail rail_electric rail_fast ship" speed="13.89" length="20.46" shape="103.69,223.30 102.58,218.83 101.90,213.21 101.82,207.58 102.49,203.07"/>
    </edge>
    <edge id=":-102147_2" function="internal">
        <lane id=":-102147_2_0" index="0" disallow="tram rail_urban rail rail_electric rail_fast ship" speed="7.40" length="9.51" shape="103.69,223.30 102.33,217.54 103.32,214.24 103.46,214.20"/>
    </edge>
    <edge id=":-102147_3" function="internal">
        <lane id=":-102147_3_0" index="0" disallow="tram rail_urban rail rail_electric rail_fast ship" speed="3.65" length="2.48" shape="103.69,223.30 104.03,221.90 104.65,221.25 104.79,221.26"/>
    </edge>
    <edge id=":-102147_16" function="internal">
        <lane id=":-102147_16_0" index="0" disallow="tram rail_urban rail rail_electric rail_fast ship" speed="7.40" length="9.22" shape="103.46,214.20 106.67,213.38 112.36,214.98"/>
    </edge>
    <edge id=":-102147_17" function="internal">
        <lane id=":-102147_17_0" index="0" disallow="tram rail_urban rail rail_electric rail_fast ship" speed="3.65" length="2.19" shape="104.79,221.26 105.54,221.35 106.70,222.21"/>
    </edge>
    <edge id=":-102147_4" function="internal">
        <lane id=":-102147_4_0" index="0" disallow="tram rail_urban rail rail_electric rail_fast ship" speed="5.50" length="9.61" shape="111.15,217.94 108.23,217.12 106.51,217.56 106.00,219.25 106.70,222.21"/>
    </edge>
    <edge id=":-102147_5" function="internal">
        <lane id=":-102147_5_0" index="0" disallow="tram rail_urban rail rail_electric rail_fast ship" speed="13.89" length="20.60" shape="111.15,217.94 106.97,215.95 102.02,213.16 97.25,210.09 93.60,207.27"/>
    </edge>
    <edge id=":-102147_6" function="internal">
        <lane id=":-102147_6_0" index="0" disallow="tram rail_urban rail rail_electric rail_fast ship" speed="9.55" length="19.21" shape="111.15,217.94 106.20,215.20 103.11,211.81 101.87,207.76 102.49,203.07"/>
    </edge>
    <edge id=":-102147_7" function="internal">
        <lane id=":-102147_7_0" index="0" disallow="tram rail_urban rail rail_electric rail_fast ship" speed="3.65" length="4.67" shape="111.15,217.94 110.34,216.74 110.28,215.85 110.95,215.27 112.36,214.98"/>
    </edge>
    <edge id=":-102147_8" function="internal">
        <lane id=":-102147_8_0" index="0" disallow="tram rail_urban rail rail_electric rail_fast ship" speed="8.33" length="14.40" shape="105.55,204.01 105.14,207.41 106.14,210.38 108.55,212.90 112.36,214.98"/>
    </edge>
    <edge id=":-102147_9" function="internal">
        <lane id=":-102147_9_0" index="0" disallow="tram rail_urban rail rail_electric rail_fast ship" speed="13.89" length="18.44" shape="105.55,204.01 104.87,208.21 104.93,213.14 105.59,218.05 106.70,222.21"/>
    </edge>
    <edge id=":-102147_10" function="internal">
        <lane id=":-102147_10_0" index="0" disallow="tram rail_urban rail rail_electric rail_fast ship" speed="7.45" length="4.92" shape="105.55,204.01 103.53,208.36 103.43,208.43"/>
    </edge>
    <edge id=":-102147_11" function="internal">