<?xml version="1.0" encoding="UTF-8"?>

<!-- generated on Tue 28 Apr 2020 10:58:58 PM WITA by Eclipse SUMO netedit Version 1.5.0
<configuration xmlns:xsi="http://www.w3.org/2001/XMLSchema-instance" xsi:noNamespaceSchemaLocation="http://sumo.dlr.de/xsd/netconvertConfiguration.xsd">

    <input>
        <sumo-net-file value="mapaja_baru.net.xml"/>
    </input>

    <output>
        <output-file value="mapaja_baru.net.xml"/>
    </output>

    <processing>
        <geometry.min-radius.fix.railways value="false"/>
        <geometry.max-grade.fix value="false"/>
        <offset.disable-normalization value="true"/>
        <lefthand value="false"/>
    </processing>

    <junctions>
        <no-turnarounds value="true"/>
        <junctions.corner-detail value="5"/>
        <junctions.limit-turn-speed value="5.5"/>
        <rectangular-lane-cut value="false"/>
    </junctions>

    <pedestrian>
        <walkingareas value="false"/>
    </pedestrian>

    <report>
        <aggregate-warnings value="5"/>
    </report>

</configuration>
-->

<net version="1.3" junctionCornerDetail="5" limitTurnSpeed="5.50" xmlns:xsi="http://www.w3.org/2001/XMLSchema-instance" xsi:noNamespaceSchemaLocation="http://sumo.dlr.de/xsd/net_file.xsd">

    <location netOffset="-331212.88,928244.00" convBoundary="0.00,9.70,664.48,789.88" origBoundary="115.462269,-8.395525,115.501639,-8.341677" projParameter="+proj=utm +zone=50 +ellps=WGS84 +datum=WGS84 +units=m +no_defs"/>

    <type id="highway.bridleway" priority="1" numLanes="1" speed="2.78" allow="pedestrian" oneway="1" width="2.00"/>
    <type id="highway.bus_guideway" priority="1" numLanes="1" speed="27.78" allow="bus" oneway="1"/>
    <type id="highway.cycleway" priority="1" numLanes="1" speed="8.33" allow="bicycle" oneway="0" width="1.00"/>
    <type id="highway.footway" priority="1" numLanes="1" speed="2.78" allow="pedestrian" oneway="1" width="2.00"/>
    <type id="highway.ford" priority="1" numLanes="1" speed="2.78" allow="army" oneway="0"/>
    <type id="highway.living_street" priority="2" numLanes="1" speed="2.78" disallow="tram rail_urban rail rail_electric rail_fast ship" oneway="0"/>
    <type id="highway.motorway" priority="14" numLanes="2" speed="39.44" allow="private emergency authority army vip passenger hov taxi bus coach delivery truck trailer motorcycle evehicle custom1 custom2" oneway="1"/>
    <type id="highway.motorway_link" priority="9" numLanes="1" speed="22.22" allow="private emergency authority army vip passenger hov taxi bus coach delivery truck trailer motorcycle evehicle custom1 custom2" oneway="1"/>
    <type id="highway.path" priority="1" numLanes="1" speed="2.78" allow="pedestrian bicycle" oneway="1" width="2.00"/>
    <type id="highway.pedestrian" priority="1" numLanes="1" speed="2.78" allow="pedestrian" oneway="1" width="2.00"/>
    <type id="highway.primary" priority="12" numLanes="2" speed="27.78" disallow="tram rail_urban rail rail_electric rail_fast ship" oneway="0"/>
    <type id="highway.primary_link" priority="7" numLanes="1" speed="22.22" disallow="tram rail_urban rail rail_electric rail_fast ship" oneway="0"/>
    <type id="highway.raceway" priority="15" numLanes="2" speed="83.33" allow="vip" oneway="0"/>
    <type id="highway.residential" priority="3" numLanes="1" speed="13.89" disallow="tram rail_urban rail rail_electric rail_fast ship" oneway="0"/>
    <type id="highway.secondary" priority="11" numLanes="1" speed="27.78" disallow="tram rail_urban rail rail_electric rail_fast ship" oneway="0"/>
    <type id="highway.secondary_link" priority="6" numLanes="1" speed="22.22" disallow="tram rail_urban rail rail_electric rail_fast ship" oneway="0"/>
    <type id="highway.service" priority="1" numLanes="1" speed="5.56" allow="pedestrian delivery bicycle" oneway="0"/>
    <type id="highway.stairs" priority="1" numLanes="1" speed="1.39" allow="pedestrian" oneway="1" width="2.00"/>
    <type id="highway.step" priority="1" numLanes="1" speed="1.39" allow="pedestrian" oneway="1" width="2.00"/>
    <type id="highway.steps" priority="1" numLanes="1" speed="1.39" allow="pedestrian" oneway="1" width="2.00"/>
    <type id="highway.tertiary" priority="10" numLanes="1" speed="22.22" disallow="tram rail_urban rail rail_electric rail_fast ship" oneway="0"/>
    <type id="highway.tertiary_link" priority="5" numLanes="1" speed="22.22" disallow="tram rail_urban rail rail_electric rail_fast ship" oneway="0"/>
    <type id="highway.track" priority="1" numLanes="1" speed="5.56" disallow="tram rail_urban rail rail_electric rail_fast ship" oneway="0"/>
    <type id="highway.trunk" priority="13" numLanes="2" speed="27.78" disallow="pedestrian bicycle tram rail_urban rail rail_electric rail_fast ship" oneway="0"/>
    <type id="highway.trunk_link" priority="8" numLanes="1" speed="22.22" disallow="pedestrian bicycle tram rail_urban rail rail_electric rail_fast ship" oneway="0"/>
    <type id="highway.unclassified" priority="4" numLanes="1" speed="13.89" disallow="tram rail_urban rail rail_electric rail_fast ship" oneway="0"/>
    <type id="highway.unsurfaced" priority="1" numLanes="1" speed="8.33" disallow="tram rail_urban rail rail_electric rail_fast ship" oneway="0"/>
    <type id="railway.highspeed" priority="21" numLanes="1" speed="69.44" allow="rail_fast" oneway="1"/>
    <type id="railway.light_rail" priority="19" numLanes="1" speed="27.78" allow="rail_urban" oneway="1"/>
    <type id="railway.preserved" priority="16" numLanes="1" speed="27.78" allow="rail" oneway="1"/>
    <type id="railway.rail" priority="20" numLanes="1" speed="44.44" allow="rail" oneway="1"/>
    <type id="railway.subway" priority="18" numLanes="1" speed="27.78" allow="rail_urban" oneway="1"/>
    <type id="railway.tram" priority="17" numLanes="1" speed="13.89" allow="tram" oneway="1"/>

    <edge id=":-101774_0" function="internal">
        <lane id=":-101774_0_0" index="0" disallow="tram rail_urban rail rail_electric rail_fast ship" speed="6.30" length="9.04" shape="499.31,619.70 498.11,617.49 496.52,616.27 494.52,616.04 492.13,616.80"/>
    </edge>
    <edge id=":-101774_1" function="internal">
        <lane id=":-101774_1_0" index="0" disallow="tram rail_urban rail rail_electric rail_fast ship" speed="13.89" length="14.64" shape="499.31,619.70 497.97,616.26 496.52,612.93 494.94,609.67 493.20,606.41"/>
    </edge>
    <edge id=":-101774_2" function="internal">
        <lane id=":-101774_2_0" index="0" disallow="tram rail_urban rail rail_electric rail_fast ship" speed="3.65" length="2.34" shape="499.31,619.70 499.64,618.30 500.26,617.65"/>
    </edge>
    <edge id=":-101774_9" function="internal">
        <lane id=":-101774_9_0" index="0" disallow="tram rail_urban rail rail_electric rail_fast ship" speed="3.65" length="2.34" shape="500.26,617.65 501.15,617.75 502.31,618.60"/>
    </edge>
    <edge id=":-101774_3" function="internal">
        <lane id=":-101774_3_0" index="0" disallow="tram rail_urban rail rail_electric rail_fast ship" speed="13.89" length="15.15" shape="495.99,604.84 497.76,608.17 499.42,611.60 500.94,615.08 502.31,618.60"/>
    </edge>
    <edge id=":-101774_4" function="internal">
        <lane id=":-101774_4_0" index="0" disallow="tram rail_urban rail rail_electric rail_fast ship" speed="7.92" length="6.28" shape="495.99,604.84 497.41,608.57 497.30,610.86"/>
    </edge>
    <edge id=":-101774_5" function="internal">
        <lane id=":-101774_5_0" index="0" disallow="tram rail_urban rail rail_electric rail_fast ship" speed="3.65" length="2.34" shape="495.99,604.84 495.88,606.28 495.37,607.02"/>
    </edge>
    <edge id=":-101774_10" function="internal">
        <lane id=":-101774_10_0" index="0" disallow="tram rail_urban rail rail_electric rail_fast ship" speed="7.92" length="8.25" shape="497.30,610.86 497.25,611.80 495.48,614.55 492.13,616.80"/>
    </edge>
    <edge id=":-101774_11" function="internal">
        <lane id=":-101774_11_0" index="0" disallow="tram rail_urban rail rail_electric rail_fast ship" speed="3.65" length="2.34" shape="495.37,607.02 494.48,607.06 493.20,606.41"/>
    </edge>
    <edge id=":-101774_6" function="internal">
        <lane id=":-101774_6_0" index="0" disallow="tram rail_urban rail rail_electric rail_fast ship" speed="6.41" length="9.14" shape="490.73,613.92 492.86,612.50 493.97,610.77 494.09,608.74 493.20,606.41"/>
    </edge>
    <edge id=":-101774_7" function="internal">
        <lane id=":-101774_7_0" index="0" disallow="tram rail_urban rail rail_electric rail_fast ship" speed="7.83" length="14.58" shape="490.73,613.92 494.60,612.69 497.81,613.06 500.38,615.03 502.31,618.60"/>
    </edge>
    <edge id=":-101774_8" function="internal">
        <lane id=":-101774_8_0" index="0" disallow="tram rail_urban rail rail_electric rail_fast ship" speed="3.65" length="4.67" shape="490.73,613.92 492.16,614.12 492.87,614.66 492.86,615.56 492.13,616.80"/>
    </edge>
    <edge id=":-101775_0" function="internal">
        <lane id=":-101775_0_0" index="0" disallow="tram rail_urban rail rail_electric rail_fast ship" speed="13.89" length="16.77" shape="467.03,559.73 465.13,556.17 463.24,552.24 461.59,548.21 460.39,544.38"/>
    </edge>
    <edge id=":-101775_1" function="internal">
        <lane id=":-101775_1_0" index="0" disallow="tram rail_urban rail rail_electric rail_fast ship" speed="7.38" length="7.31" shape="467.03,559.73 465.01,554.74 465.27,552.83"/>
    </edge>
    <edge id=":-101775_2" function="internal">
        <lane id=":-101775_2_0" index="0" disallow="tram rail_urban rail rail_electric rail_fast ship" speed="3.65" length="2.34" shape="467.03,559.73 467.14,558.29 467.65,557.55"/>
    </edge>
    <edge id=":-101775_9" function="internal">
        <lane id=":-101775_9_0" index="0" disallow="tram rail_urban rail rail_electric rail_fast ship" speed="7.38" length="10.23" shape="465.27,552.83 465.46,551.38 468.37,549.65 473.75,549.55"/>
    </edge>
    <edge id=":-101775_10" function="internal">
        <lane id=":-101775_10_0" index="0" disallow="tram rail_urban rail rail_electric rail_fast ship" speed="3.65" length="2.34" shape="467.65,557.55 468.54,557.51 469.82,558.17"/>
    </edge>
    <edge id=":-101775_3" function="internal">
        <lane id=":-101775_3_0" index="0" disallow="tram rail_urban rail rail_electric rail_fast ship" speed="5.58" length="9.36" shape="473.41,552.73 470.54,552.79 468.98,553.71 468.75,555.50 469.82,558.17"/>
    </edge>
    <edge id=":-101775_4" function="internal">
        <lane id=":-101775_4_0" index="0" disallow="tram rail_urban rail rail_electric rail_fast ship" speed="9.95" length="16.49" shape="473.41,552.73 468.38,551.75 464.53,550.04 461.86,547.58 460.39,544.38"/>
    </edge>
    <edge id=":-101775_5" function="internal">
        <lane id=":-101775_5_0" index="0" disallow="tram rail_urban rail rail_electric rail_fast ship" speed="3.65" length="4.67" shape="473.41,552.73 472.30,551.81 471.99,550.97 472.47,550.22 473.75,549.55"/>
    </edge>
    <edge id=":-101775_6" function="internal">
        <lane id=":-101775_6_0" index="0" disallow="tram rail_urban rail rail_electric rail_fast ship" speed="8.75" length="12.58" shape="463.49,543.61 464.60,545.84 466.67,547.58 469.73,548.81 473.75,549.55"/>
    </edge>
    <edge id=":-101775_7" function="internal">
        <lane id=":-101775_7_0" index="0" disallow="tram rail_urban rail rail_electric rail_fast ship" speed="13.89" length="15.91" shape="463.49,543.61 464.65,547.32 466.19,551.07 467.97,554.73 469.82,558.17"/>
    </edge>
    <edge id=":-101775_8" function="internal">
        <lane id=":-101775_8_0" index="0" disallow="tram rail_urban rail rail_electric rail_fast ship" speed="3.65" length="2.23" shape="463.49,543.61 463.01,544.97 462.41,545.48"/>
    </edge>
    <edge id=":-101775_11" function="internal">
        <lane id=":-101775_11_0" index="0" disallow="tram rail_urban rail rail_electric rail_fast ship" speed="3.65" length="2.45" shape="462.41,545.48 462.33,545.55 461.45,545.35 460.39,544.38"/>
    </edge>
    <edge id=":-101776_0" function="internal">
        <lane id=":-101776_0_0" index="0" disallow="tram rail_urban rail rail_electric rail_fast ship" speed="13.89" length="12.04" shape="434.77,440.87 433.91,437.68 432.94,435.11 431.55,432.78 429.42,430.29"/>
    </edge>
    <edge id=":-101776_1" function="internal">
        <lane id=":-101776_1_0" index="0" disallow="tram rail_urban rail rail_electric rail_fast ship" speed="7.89" length="5.27" shape="434.77,440.87 434.37,436.90 434.76,435.69"/>
    </edge>
    <edge id=":-101776_2" function="internal">
        <lane id=":-101776_2_0" index="0" disallow="tram rail_urban rail rail_electric rail_fast ship" speed="3.65" length="2.34" shape="434.77,440.87 435.25,439.52 435.94,438.94"/>
    </edge>
    <edge id=":-101776_9" function="internal">
        <lane id=":-101776_9_0" index="0" disallow="tram rail_urban rail rail_electric rail_fast ship" speed="7.89" length="9.17" shape="434.76,435.69 435.37,433.83 437.76,431.67 441.54,430.40"/>
    </edge>
    <edge id=":-101776_10" function="internal">
        <lane id=":-101776_10_0" index="0" disallow="tram rail_urban rail rail_electric rail_fast ship" speed="3.65" length="2.34" shape="435.94,438.94 436.81,439.13 437.87,440.10"/>
    </edge>
    <edge id=":-101776_3" function="internal">
        <lane id=":-101776_3_0" index="0" disallow="tram rail_urban rail rail_electric rail_fast ship" speed="6.38" length="9.04" shape="442.11,433.55 439.74,434.34 438.25,435.70 437.62,437.62 437.87,440.10"/>
    </edge>
    <edge id=":-101776_4" function="internal">
        <lane id=":-101776_4_0" index="0" disallow="tram rail_urban rail rail_electric rail_fast ship" speed="10.40" length="13.66" shape="442.11,433.55 438.27,433.90 434.88,433.47 431.93,432.27 429.42,430.29"/>
    </edge>
    <edge id=":-101776_5" function="internal">
        <lane id=":-101776_5_0" index="0" disallow="tram rail_urban rail rail_electric rail_fast ship" speed="3.65" length="4.67" shape="442.11,433.55 440.79,432.97 440.25,432.26 440.50,431.40 441.54,430.40"/>
    </edge>
    <edge id=":-101776_6" function="internal">
        <lane id=":-101776_6_0" index="0" disallow="tram rail_urban rail rail_electric rail_fast ship" speed="9.18" length="10.50" shape="431.73,428.07 433.61,429.53 435.87,430.40 438.51,430.69 441.54,430.40"/>
    </edge>
    <edge id=":-101776_7" function="internal">
        <lane id=":-101776_7_0" index="0" disallow="tram rail_urban rail rail_electric rail_fast ship" speed="13.89" length="13.68" shape="431.73,428.07 433.98,430.79 435.65,433.62 436.89,436.68 437.87,440.10"/>
    </edge>
    <edge id=":-101776_8" function="internal">
        <lane id=":-101776_8_0" index="0" disallow="tram rail_urban rail rail_electric rail_fast ship" speed="3.65" length="2.34" shape="431.73,428.07 431.99,429.49 431.69,430.33"/>
    </edge>
    <edge id=":-101776_11" function="internal">
        <lane id=":-101776_11_0" index="0" disallow="tram rail_urban rail rail_electric rail_fast ship" speed="3.65" length="2.34" shape="431.69,430.33 430.83,430.60 429.42,430.29"/>
    </edge>
    <edge id=":-101777_0" function="internal">
        <lane id=":-101777_0_0" index="0" disallow="tram rail_urban rail rail_electric rail_fast ship" speed="5.95" length="9.09" shape="386.36,385.49 384.30,383.88 382.40,383.50 380.67,384.36 379.10,386.45"/>
    </edge>
    <edge id=":-101777_1" function="internal">
        <lane id=":-101777_1_0" index="0" disallow="tram rail_urban rail rail_electric rail_fast ship" speed="13.89" length="14.22" shape="386.36,385.49 383.89,382.80 381.74,380.04 379.96,377.06 378.63,373.71"/>
    </edge>
    <edge id=":-101777_2" function="internal">
        <lane id=":-101777_2_0" index="0" disallow="tram rail_urban rail rail_electric rail_fast ship" speed="3.65" length="2.34" shape="386.36,385.49 386.10,384.07 386.40,383.23"/>
    </edge>
    <edge id=":-101777_9" function="internal">
        <lane id=":-101777_9_0" index="0" disallow="tram rail_urban rail rail_electric rail_fast ship" speed="3.65" length="2.34" shape="386.40,383.23 387.25,382.96 388.66,383.27"/>
    </edge>
    <edge id=":-101777_3" function="internal">
        <lane id=":-101777_3_0" index="0" disallow="tram rail_urban rail rail_electric rail_fast ship" speed="13.89" length="12.75" shape="381.69,372.78 382.91,375.93 384.42,378.47 386.32,380.78 388.66,383.27"/>
    </edge>
    <edge id=":-101777_4" function="internal">
        <lane id=":-101777_4_0" index="0" disallow="tram rail_urban rail rail_electric rail_fast ship" speed="12.27" length="4.71" shape="381.69,372.78 382.19,375.79 382.05,377.44"/>
    </edge>
    <edge id=":-101777_5" function="internal">
        <lane id=":-101777_5_0" index="0" disallow="tram rail_urban rail rail_electric rail_fast ship" speed="3.65" length="2.19" shape="381.69,372.78 381.27,374.16 380.73,374.67"/>
    </edge>
    <edge id=":-101777_10" function="internal">
        <lane id=":-101777_10_0" index="0" disallow="tram rail_urban rail rail_electric rail_fast ship" speed="12.27" length="9.56" shape="382.05,377.44 381.92,379.08 380.89,382.63 379.10,386.45"/>
    </edge>
    <edge id=":-101777_11" function="internal">
        <lane id=":-101777_11_0" index="0" disallow="tram rail_urban rail rail_electric rail_fast ship" speed="3.65" length="2.49" shape="380.73,374.67 380.62,374.77 379.74,374.62 378.63,373.71"/>
    </edge>
    <edge id=":-101777_6" function="internal">
        <lane id=":-101777_6_0" index="0" disallow="tram rail_urban rail rail_electric rail_fast ship" speed="11.15" length="11.72" shape="376.30,384.91 377.83,381.69 378.73,378.75 378.99,376.09 378.63,373.71"/>
    </edge>
    <edge id=":-101777_7" function="internal">
        <lane id=":-101777_7_0" index="0" disallow="tram rail_urban rail rail_electric rail_fast ship" speed="7.57" length="15.50" shape="376.30,384.91 378.97,381.35 381.92,379.89 385.15,380.53 388.66,383.27"/>
    </edge>
    <edge id=":-101777_8" function="internal">
        <lane id=":-101777_8_0" index="0" disallow="tram rail_urban rail rail_electric rail_fast ship" speed="3.65" length="4.67" shape="376.30,384.91 377.58,384.24 378.47,384.28 378.98,385.01 379.10,386.45"/>
    </edge>
    <edge id=":-101778_0" function="internal">
        <lane id=":-101778_0_0" index="0" disallow="tram rail_urban rail rail_electric rail_fast ship" speed="6.34" length="9.22" shape="350.02,280.11 348.94,277.84 347.37,276.55 345.33,276.25 342.81,276.93"/>
    </edge>
    <edge id=":-101778_1" function="internal">
        <lane id=":-101778_1_0" index="0" disallow="tram rail_urban rail rail_electric rail_fast ship" speed="13.89" length="14.81" shape="350.02,280.11 348.81,276.59 347.37,273.20 345.70,269.91 343.80,266.72"/>
    </edge>
    <edge id=":-101778_2" function="internal">
        <lane id=":-101778_2_0" index="0" disallow="tram rail_urban rail rail_electric rail_fast ship" speed="8.37" length="14.37" shape="350.02,280.11 349.35,276.14 349.96,272.84 351.86,270.21 355.04,268.24"/>
    </edge>
    <edge id=":-101778_3" function="internal">
        <lane id=":-101778_3_0" index="0" disallow="tram rail_urban rail rail_electric rail_fast ship" speed="3.65" length="4.67" shape="350.02,280.11 350.43,278.73 351.08,278.11 351.96,278.26 353.08,279.17"/>
    </edge>
    <edge id=":-101778_4" function="internal">
        <lane id=":-101778_4_0" index="0" disallow="tram rail_urban rail rail_electric rail_fast ship" speed="6.95" length="9.60" shape="356.29,271.18 354.22,272.48 352.99,274.25 352.61,276.48 353.08,279.17"/>
    </edge>
    <edge id=":-101778_5" function="internal">
        <lane id=":-101778_5_0" index="0" disallow="tram rail_urban rail rail_electric rail_fast ship" speed="13.89" length="14.66" shape="356.29,271.18 342.81,276.93"/>
    </edge>
    <edge id=":-101778_6" function="internal">
        <lane id=":-101778_6_0" index="0" disallow="tram rail_urban rail rail_electric rail_fast ship" speed="8.65" length="5.77" shape="356.29,271.18 352.67,272.12 350.65,271.85"/>
    </edge>
    <edge id=":-101778_7" function="internal">
        <lane id=":-101778_7_0" index="0" disallow="tram rail_urban rail rail_electric rail_fast ship" speed="3.65" length="2.34" shape="356.29,271.18 354.88,270.92 354.19,270.34"/>
    </edge>
    <edge id=":-101778_16" function="internal">
        <lane id=":-101778_16_0" index="0" disallow="tram rail_urban rail rail_electric rail_fast ship" speed="8.65" length="8.85" shape="350.65,271.85 349.38,271.68 346.43,269.88 343.80,266.72"/>
    </edge>
    <edge id=":-101778_17" function="internal">
        <lane id=":-101778_17_0" index="0" disallow="tram rail_urban rail rail_electric rail_fast ship" speed="3.65" length="2.34" shape="354.19,270.34 354.25,269.45 355.04,268.24"/>
    </edge>
    <edge id=":-101778_8" function="internal">
        <lane id=":-101778_8_0" index="0" disallow="tram rail_urban rail rail_electric rail_fast ship" speed="7.27" length="10.07" shape="346.50,264.99 348.33,267.23 350.36,268.51 352.60,268.85 355.04,268.24"/>
    </edge>
    <edge id=":-101778_9" function="internal">
        <lane id=":-101778_9_0" index="0" disallow="tram rail_urban rail rail_electric rail_fast ship" speed="13.89" length="15.67" shape="346.50,264.99 348.46,268.31 350.25,271.87 351.81,275.53 353.08,279.17"/>
    </edge>
    <edge id=":-101778_10" function="internal">
        <lane id=":-101778_10_0" index="0" disallow="tram rail_urban rail rail_electric rail_fast ship" speed="7.73" length="14.86" shape="346.50,264.99 348.22,268.79 348.18,272.05 346.38,274.76 342.81,276.93"/>
    </edge>
    <edge id=":-101778_11" function="internal">
        <lane id=":-101778_11_0" index="0" disallow="tram rail_urban rail rail_electric rail_fast ship" speed="3.65" length="4.67" shape="346.50,264.99 346.47,266.44 346.01,267.20 345.12,267.30 343.80,266.72"/>
    </edge>
    <edge id=":-101778_12" function="internal">
        <lane id=":-101778_12_0" index="0" disallow="tram rail_urban rail rail_electric rail_fast ship" speed="6.18" length="9.05" shape="341.56,273.99 343.73,272.67 344.83,271.02 344.85,269.03 343.80,266.72"/>
    </edge>
    <edge id=":-101778_13" function="internal">
        <lane id=":-101778_13_0" index="0" disallow="tram rail_urban rail rail_electric rail_fast ship" speed="13.89" length="14.66" shape="341.56,273.99 355.04,268.24"/>
    </edge>
    <edge id=":-101778_14" function="internal">
        <lane id=":-101778_14_0" index="0" disallow="tram rail_urban rail rail_electric rail_fast ship" speed="7.86" length="6.09" shape="341.56,273.99 345.57,272.91 347.48,273.20"/>
    </edge>
    <edge id=":-101778_15" function="internal">
        <lane id=":-101778_15_0" index="0" disallow="tram rail_urban rail rail_electric rail_fast ship" speed="3.65" length="2.34" shape="341.56,273.99 342.97,274.25 343.66,274.83"/>
    </edge>
    <edge id=":-101778_18" function="internal">
        <lane id=":-101778_18_0" index="0" disallow="tram rail_urban rail rail_electric rail_fast ship" speed="7.86" length="8.69" shape="347.48,273.20 348.83,273.41 351.34,275.50 353.08,279.17"/>
    </edge>
    <edge id=":-101778_19" function="internal">
        <lane id=":-101778_19_0" index="0" disallow="tram rail_urban rail rail_electric rail_fast ship" speed="3.65" length="2.34" shape="343.66,274.83 343.60,275.73 342.81,276.93"/>
    </edge>
    <edge id=":-101782_0" function="internal">
        <lane id=":-101782_0_0" index="0" disallow="tram rail_urban rail rail_electric rail_fast ship" speed="10.78" length="14.72" shape="453.61,517.01 452.35,513.89 450.23,511.22 447.24,509.02 443.39,507.26"/>
    </edge>
    <edge id=":-101782_1" function="internal">
        <lane id=":-101782_1_0" index="0" disallow="tram rail_urban rail rail_electric rail_fast ship" speed="13.89" length="17.72" shape="453.61,517.01 449.36,499.81"/>
    </edge>
    <edge id=":-101782_2" function="internal">
        <lane id=":-101782_2_0" index="0" disallow="tram rail_urban rail rail_electric rail_fast ship" speed="7.74" length="6.00" shape="453.61,517.01 453.20,512.87 453.81,511.14"/>
    </edge>
    <edge id=":-101782_3" function="internal">
        <lane id=":-101782_3_0" index="0" disallow="tram rail_urban rail rail_electric rail_fast ship" speed="3.65" length="2.34" shape="453.61,517.01 454.10,515.65 454.78,515.07"/>
    </edge>
    <edge id=":-101782_16" function="internal">
        <lane id=":-101782_16_0" index="0" disallow="tram rail_urban rail rail_electric rail_fast ship" speed="7.74" length="8.84" shape="453.81,511.14 454.28,509.79 456.85,507.79 460.91,506.87"/>
    </edge>
    <edge id=":-101782_17" function="internal">
        <lane id=":-101782_17_0" index="0" disallow="tram rail_urban rail rail_electric rail_fast ship" speed="3.65" length="2.34" shape="454.78,515.07 455.65,515.27 456.72,516.24"/>
    </edge>
    <edge id=":-101782_4" function="internal">
        <lane id=":-101782_4_0" index="0" disallow="tram rail_urban rail rail_electric rail_fast ship" speed="6.19" length="9.05" shape="461.17,510.05 458.69,510.62 457.12,511.84 456.47,513.71 456.72,516.24"/>
    </edge>
    <edge id=":-101782_5" function="internal">
        <lane id=":-101782_5_0" index="0" disallow="tram rail_urban rail rail_electric rail_fast ship" speed="13.89" length="18.09" shape="461.17,510.05 456.95,510.03 452.18,509.44 447.45,508.46 443.39,507.26"/>
    </edge>
    <edge id=":-101782_6" function="internal">
        <lane id=":-101782_6_0" index="0" disallow="tram rail_urban rail rail_electric rail_fast ship" speed="9.15" length="16.56" shape="461.17,510.05 457.58,509.32 454.03,506.97 451.09,503.60 449.36,499.81"/>
    </edge>
    <edge id=":-101782_7" function="internal">
        <lane id=":-101782_7_0" index="0" disallow="tram rail_urban rail rail_electric rail_fast ship" speed="3.65" length="4.67" shape="461.17,510.05 459.91,509.35 459.44,508.59 459.78,507.76 460.91,506.87"/>
    </edge>
    <edge id=":-101782_8" function="internal">
        <lane id=":-101782_8_0" index="0" disallow="tram rail_urban rail rail_electric rail_fast ship" speed="8.07" length="12.65" shape="452.46,499.05 453.76,502.66 455.61,505.17 457.99,506.57 460.91,506.87"/>
    </edge>
    <edge id=":-101782_9" function="internal">
        <lane id=":-101782_9_0" index="0" disallow="tram rail_urban rail rail_electric rail_fast ship" speed="13.89" length="17.72" shape="452.46,499.05 456.72,516.24"/>
    </edge>
    <edge id=":-101782_10" function="internal">
        <lane id=":-101782_10_0" index="0" disallow="tram rail_urban rail rail_electric rail_fast ship" speed="7.39" length="6.80" shape="452.46,499.05 453.06,504.26 452.46,505.69"/>
    </edge>
    <edge id=":-101782_11" function="internal">
        <lane id=":-101782_11_0" index="0" disallow="tram rail_urban rail rail_electric rail_fast ship" speed="3.65" length="2.34" shape="452.46,499.05 451.97,500.40 451.29,500.98"/>
    </edge>
    <edge id=":-101782_18" function="internal">
        <lane id=":-101782_18_0" index="0" disallow="tram rail_urban rail rail_electric rail_fast ship" speed="7.39" length="10.46" shape="452.46,505.69 451.75,507.37 448.52,508.37 443.39,507.26"/>
    </edge>
    <edge id=":-101782_19" function="internal">
        <lane id=":-101782_19_0" index="0" disallow="tram rail_urban rail rail_electric rail_fast ship" speed="3.65" length="2.34" shape="451.29,500.98 450.42,500.79 449.36,499.81"/>
    </edge>
    <edge id=":-101782_12" function="internal">
        <lane id=":-101782_12_0" index="0" disallow="tram rail_urban rail rail_electric rail_fast ship" speed="5.61" length="9.31" shape="444.46,504.25 447.23,504.85 448.97,504.31 449.68,502.63 449.36,499.81"/>
    </edge>
    <edge id=":-101782_13" function="internal">
        <lane id=":-101782_13_0" index="0" disallow="tram rail_urban rail rail_electric rail_fast ship" speed="13.89" length="16.75" shape="444.46,504.25 448.32,505.42 452.58,506.34 456.90,506.86 460.91,506.87"/>
    </edge>
    <edge id=":-101782_14" function="internal">
        <lane id=":-101782_14_0" index="0" disallow="tram rail_urban rail rail_electric rail_fast ship" speed="11.75" length="17.60" shape="444.46,504.25 448.38,506.30 452.11,509.35 455.08,512.86 456.72,516.24"/>
    </edge>
    <edge id=":-101782_15" function="internal">
        <lane id=":-101782_15_0" index="0" disallow="tram rail_urban rail rail_electric rail_fast ship" speed="3.65" length="4.67" shape="444.46,504.25 445.32,505.40 445.43,506.29 444.79,506.91 443.39,507.26"/>
    </edge>
    <edge id=":-101786_0" function="internal">
        <lane id=":-101786_0_0" index="0" disallow="tram rail_urban rail rail_electric rail_fast ship" speed="6.46" length="9.03" shape="558.14,481.98 556.68,479.97 554.93,478.93 552.90,478.85 550.58,479.74"/>
    </edge>
    <edge id=":-101786_1" function="internal">
        <lane id=":-101786_1_0" index="0" disallow="tram rail_urban rail rail_electric rail_fast ship" speed="13.89" length="14.40" shape="558.14,481.98 551.39,469.25"/>
    </edge>
    <edge id=":-101786_2" function="internal">
        <lane id=":-101786_2_0" index="0" disallow="tram rail_urban rail rail_electric rail_fast ship" speed="3.65" length="2.34" shape="558.14,481.98 558.29,480.54 558.80,479.81"/>
    </edge>
    <edge id=":-101786_9" function="internal">
        <lane id=":-101786_9_0" index="0" disallow="tram rail_urban rail rail_electric rail_fast ship" speed="3.65" length="2.34" shape="558.80,479.81 559.70,479.79 560.97,480.48"/>
    </edge>
    <edge id=":-101786_3" function="internal">
        <lane id=":-101786_3_0" index="0" disallow="tram rail_urban rail rail_electric rail_fast ship" speed="13.89" length="14.40" shape="554.22,467.76 560.97,480.48"/>
    </edge>
    <edge id=":-101786_4" function="internal">
        <lane id=":-101786_4_0" index="0" disallow="tram rail_urban rail rail_electric rail_fast ship" speed="8.07" length="5.89" shape="554.22,467.76 555.52,471.39 555.41,473.42"/>
    </edge>
    <edge id=":-101786_5" function="internal">