<?xml version="1.0" encoding="UTF-8"?>

<!-- generated on Wed 29 Apr 2020 12:23:08 AM WITA by Eclipse SUMO netedit Version 1.5.0
<configuration xmlns:xsi="http://www.w3.org/2001/XMLSchema-instance" xsi:noNamespaceSchemaLocation="http://sumo.dlr.de/xsd/netconvertConfiguration.xsd">

    <input>
        <sumo-net-file value="sebudi.net.xml"/>
    </input>

    <output>
        <output-file value="sebudi.net.xml"/>
    </output>

    <processing>
        <geometry.min-radius.fix.railways value="false"/>
        <geometry.max-grade.fix value="false"/>
        <offset.disable-normalization value="true"/>
        <lefthand value="false"/>
    </processing>

    <junctions>
        <no-turnarounds value="true"/>
        <junctions.corner-detail value="5"/>
        <junctions.limit-turn-speed value="5.5"/>
        <rectangular-lane-cut value="false"/>
    </junctions>

    <pedestrian>
        <walkingareas value="false"/>
    </pedestrian>

    <report>
        <aggregate-warnings value="5"/>
    </report>

</configuration>
-->

<net version="1.3" junctionCornerDetail="5" limitTurnSpeed="5.50" xmlns:xsi="http://www.w3.org/2001/XMLSchema-instance" xsi:noNamespaceSchemaLocation="http://sumo.dlr.de/xsd/net_file.xsd">

    <location netOffset="-329165.89,930795.17" convBoundary="18.57,0.00,3004.61,3931.62" origBoundary="115.448347,-8.417527,115.501639,-8.341677" projParameter="+proj=utm +zone=50 +ellps=WGS84 +datum=WGS84 +units=m +no_defs"/>

    <type id="highway.bridleway" priority="1" numLanes="1" speed="2.78" allow="pedestrian" oneway="1" width="2.00"/>
    <type id="highway.bus_guideway" priority="1" numLanes="1" speed="27.78" allow="bus" oneway="1"/>
    <type id="highway.cycleway" priority="1" numLanes="1" speed="8.33" allow="bicycle" oneway="0" width="1.00"/>
    <type id="highway.footway" priority="1" numLanes="1" speed="2.78" allow="pedestrian" oneway="1" width="2.00"/>
    <type id="highway.ford" priority="1" numLanes="1" speed="2.78" allow="army" oneway="0"/>
    <type id="highway.living_street" priority="2" numLanes="1" speed="2.78" disallow="tram rail_urban rail rail_electric rail_fast ship" oneway="0"/>
    <type id="highway.motorway" priority="14" numLanes="2" speed="39.44" allow="private emergency authority army vip passenger hov taxi bus coach delivery truck trailer motorcycle evehicle custom1 custom2" oneway="1"/>
    <type id="highway.motorway_link" priority="9" numLanes="1" speed="22.22" allow="private emergency authority army vip passenger hov taxi bus coach delivery truck trailer motorcycle evehicle custom1 custom2" oneway="1"/>
    <type id="highway.path" priority="1" numLanes="1" speed="2.78" allow="pedestrian bicycle" oneway="1" width="2.00"/>
    <type id="highway.pedestrian" priority="1" numLanes="1" speed="2.78" allow="pedestrian" oneway="1" width="2.00"/>
    <type id="highway.primary" priority="12" numLanes="2" speed="27.78" disallow="tram rail_urban rail rail_electric rail_fast ship" oneway="0"/>
    <type id="highway.primary_link" priority="7" numLanes="1" speed="22.22" disallow="tram rail_urban rail rail_electric rail_fast ship" oneway="0"/>
    <type id="highway.raceway" priority="15" numLanes="2" speed="83.33" allow="vip" oneway="0"/>
    <type id="highway.residential" priority="3" numLanes="1" speed="13.89" disallow="tram rail_urban rail rail_electric rail_fast ship" oneway="0"/>
    <type id="highway.secondary" priority="11" numLanes="1" speed="27.78" disallow="tram rail_urban rail rail_electric rail_fast ship" oneway="0"/>
    <type id="highway.secondary_link" priority="6" numLanes="1" speed="22.22" disallow="tram rail_urban rail rail_electric rail_fast ship" oneway="0"/>
    <type id="highway.service" priority="1" numLanes="1" speed="5.56" allow="pedestrian delivery bicycle" oneway="0"/>
    <type id="highway.stairs" priority="1" numLanes="1" speed="1.39" allow="pedestrian" oneway="1" width="2.00"/>
    <type id="highway.step" priority="1" numLanes="1" speed="1.39" allow="pedestrian" oneway="1" width="2.00"/>
    <type id="highway.steps" priority="1" numLanes="1" speed="1.39" allow="pedestrian" oneway="1" width="2.00"/>
    <type id="highway.tertiary" priority="10" numLanes="1" speed="22.22" disallow="tram rail_urban rail rail_electric rail_fast ship" oneway="0"/>
    <type id="highway.tertiary_link" priority="5" numLanes="1" speed="22.22" disallow="tram rail_urban rail rail_electric rail_fast ship" oneway="0"/>
    <type id="highway.track" priority="1" numLanes="1" speed="5.56" disallow="tram rail_urban rail rail_electric rail_fast ship" oneway="0"/>
    <type id="highway.trunk" priority="13" numLanes="2" speed="27.78" disallow="pedestrian bicycle tram rail_urban rail rail_electric rail_fast ship" oneway="0"/>
    <type id="highway.trunk_link" priority="8" numLanes="1" speed="22.22" disallow="pedestrian bicycle tram rail_urban rail rail_electric rail_fast ship" oneway="0"/>
    <type id="highway.unclassified" priority="4" numLanes="1" speed="13.89" disallow="tram rail_urban rail rail_electric rail_fast ship" oneway="0"/>
    <type id="highway.unsurfaced" priority="1" numLanes="1" speed="8.33" disallow="tram rail_urban rail rail_electric rail_fast ship" oneway="0"/>
    <type id="railway.highspeed" priority="21" numLanes="1" speed="69.44" allow="rail_fast" oneway="1"/>
    <type id="railway.light_rail" priority="19" numLanes="1" speed="27.78" allow="rail_urban" oneway="1"/>
    <type id="railway.preserved" priority="16" numLanes="1" speed="27.78" allow="rail" oneway="1"/>
    <type id="railway.rail" priority="20" numLanes="1" speed="44.44" allow="rail" oneway="1"/>
    <type id="railway.subway" priority="18" numLanes="1" speed="27.78" allow="rail_urban" oneway="1"/>
    <type id="railway.tram" priority="17" numLanes="1" speed="13.89" allow="tram" oneway="1"/>

    <edge id=":1553949789_0" function="internal">
        <lane id=":1553949789_0_0" index="0" disallow="tram rail_urban rail rail_electric rail_fast ship" speed="22.22" length="14.26" shape="2360.89,3348.91 2358.79,3345.94 2356.70,3343.14 2354.52,3340.40 2352.15,3337.65"/>
    </edge>
    <edge id=":1553949789_1" function="internal">
        <lane id=":1553949789_1_0" index="0" disallow="tram rail_urban rail rail_electric rail_fast ship" speed="7.55" length="6.02" shape="2360.89,3348.91 2358.86,3344.89 2358.86,3343.37"/>
    </edge>
    <edge id=":1553949789_2" function="internal">
        <lane id=":1553949789_2_0" index="0" disallow="tram rail_urban rail rail_electric rail_fast ship" speed="3.65" length="2.34" shape="2360.89,3348.91 2360.86,3347.47 2361.29,3346.68"/>
    </edge>
    <edge id=":1553949789_9" function="internal">
        <lane id=":1553949789_9_0" index="0" disallow="tram rail_urban rail rail_electric rail_fast ship" speed="7.55" length="9.59" shape="2358.86,3343.37 2358.87,3341.59 2360.92,3339.01 2365.03,3337.15"/>
    </edge>
    <edge id=":1553949789_10" function="internal">
        <lane id=":1553949789_10_0" index="0" disallow="tram rail_urban rail rail_electric rail_fast ship" speed="3.65" length="2.34" shape="2361.29,3346.68 2362.17,3346.55 2363.51,3347.07"/>
    </edge>
    <edge id=":1553949789_3" function="internal">
        <lane id=":1553949789_3_0" index="0" disallow="tram rail_urban rail rail_electric rail_fast ship" speed="5.92" length="9.10" shape="2365.92,3340.22 2363.53,3341.30 2362.33,3342.81 2362.33,3344.73 2363.51,3347.07"/>
    </edge>
    <edge id=":1553949789_4" function="internal">
        <lane id=":1553949789_4_0" index="0" disallow="tram rail_urban rail rail_electric rail_fast ship" speed="9.94" length="14.81" shape="2365.92,3340.22 2361.66,3341.06 2357.94,3340.91 2354.77,3339.77 2352.15,3337.65"/>
    </edge>
    <edge id=":1553949789_5" function="internal">
        <lane id=":1553949789_5_0" index="0" disallow="tram rail_urban rail rail_electric rail_fast ship" speed="3.65" length="4.67" shape="2365.92,3340.22 2364.55,3339.79 2363.94,3339.13 2364.10,3338.25 2365.03,3337.15"/>
    </edge>
    <edge id=":1553949789_6" function="internal">
        <lane id=":1553949789_6_0" index="0" disallow="tram rail_urban rail rail_electric rail_fast ship" speed="8.71" length="11.20" shape="2354.53,3335.51 2356.44,3337.01 2358.83,3337.79 2361.69,3337.83 2365.03,3337.15"/>
    </edge>
    <edge id=":1553949789_7" function="internal">
        <lane id=":1553949789_7_0" index="0" disallow="tram rail_urban rail rail_electric rail_fast ship" speed="22.22" length="14.65" shape="2354.53,3335.51 2356.94,3338.31 2359.20,3341.15 2361.37,3344.06 2363.51,3347.07"/>
    </edge>
    <edge id=":1553949789_8" function="internal">
        <lane id=":1553949789_8_0" index="0" disallow="tram rail_urban rail rail_electric rail_fast ship" speed="3.65" length="2.34" shape="2354.53,3335.51 2354.74,3336.94 2354.41,3337.77"/>
    </edge>
    <edge id=":1553949789_11" function="internal">
        <lane id=":1553949789_11_0" index="0" disallow="tram rail_urban rail rail_electric rail_fast ship" speed="3.65" length="2.34" shape="2354.41,3337.77 2353.55,3338.01 2352.15,3337.65"/>
    </edge>
    <edge id=":4486134247_0" function="internal">
        <lane id=":4486134247_0_0" index="0" disallow="tram rail_urban rail rail_electric rail_fast ship" speed="7.54" length="12.84" shape="2745.85,3316.81 2744.44,3314.68 2742.09,3313.68 2738.79,3313.81 2734.54,3315.06"/>
    </edge>
    <edge id=":4486134247_1" function="internal">
        <lane id=":4486134247_1_0" index="0" disallow="tram rail_urban rail rail_electric rail_fast ship" speed="13.36" length="17.73" shape="2745.85,3316.81 2744.21,3313.77 2741.46,3310.90 2737.60,3308.19 2732.62,3305.65"/>
    </edge>
    <edge id=":4486134247_2" function="internal">
        <lane id=":4486134247_2_0" index="0" disallow="tram rail_urban rail rail_electric rail_fast ship" speed="9.72" length="19.88" shape="2745.85,3316.81 2744.23,3312.60 2742.09,3307.61 2739.84,3302.66 2737.90,3298.59"/>
    </edge>
    <edge id=":4486134247_3" function="internal">
        <lane id=":4486134247_3_0" index="0" disallow="tram rail_urban rail rail_electric rail_fast ship" speed="3.65" length="4.67" shape="2745.85,3316.81 2746.21,3315.41 2746.84,3314.77 2747.72,3314.89 2748.87,3315.76"/>
    </edge>
    <edge id=":4486134247_4" function="internal">
        <lane id=":4486134247_4_0" index="0" disallow="tram rail_urban rail rail_electric rail_fast ship" speed="9.72" length="20.28" shape="2740.77,3297.18 2742.74,3301.31 2745.04,3306.38 2747.23,3311.50 2748.87,3315.76"/>
    </edge>
    <edge id=":4486134247_5" function="internal">
        <lane id=":4486134247_5_0" index="0" disallow="tram rail_urban rail rail_electric rail_fast ship" speed="5.56" length="22.05" shape="2740.77,3297.18 2742.78,3303.18 2742.41,3308.16 2739.66,3312.12 2734.54,3315.06"/>
    </edge>
    <edge id=":4486134247_6" function="internal">
        <lane id=":4486134247_6_0" index="0" disallow="tram rail_urban rail rail_electric rail_fast ship" speed="7.51" length="20.62" shape="2740.77,3297.18 2743.11,3303.50 2742.53,3307.02 2739.03,3307.74 2732.62,3305.65"/>
    </edge>
    <edge id=":4486134247_7" function="internal">
        <lane id=":4486134247_7_0" index="0" disallow="tram rail_urban rail rail_electric rail_fast ship" speed="3.65" length="4.67" shape="2740.77,3297.18 2740.58,3298.61 2740.04,3299.32 2739.14,3299.31 2737.90,3298.59"/>
    </edge>
    <edge id=":4486134247_8" function="internal">
        <lane id=":4486134247_8_0" index="0" disallow="tram rail_urban rail rail_electric rail_fast ship" speed="5.46" length="10.07" shape="2733.92,3302.73 2737.05,3303.75 2738.75,3303.40 2739.04,3301.68 2737.90,3298.59"/>
    </edge>
    <edge id=":4486134247_9" function="internal">
        <lane id=":4486134247_9_0" index="0" disallow="tram rail_urban rail rail_electric rail_fast ship" speed="13.89" length="20.35" shape="2733.92,3302.73 2739.48,3305.59 2743.83,3308.72 2746.96,3312.11 2748.87,3315.76"/>
    </edge>
    <edge id=":4486134247_10" function="internal">
        <lane id=":4486134247_10_0" index="0" disallow="tram rail_urban rail rail_electric rail_fast ship" speed="7.54" length="19.96" shape="2733.92,3302.73 2739.65,3306.02 2741.67,3309.18 2739.96,3312.19 2734.54,3315.06"/>
    </edge>
    <edge id=":4486134247_11" function="internal">
        <lane id=":4486134247_11_0" index="0" disallow="tram rail_urban rail rail_electric rail_fast ship" speed="5.63" length="10.38" shape="2733.40,3312.07 2736.10,3310.61 2736.88,3309.06 2735.71,3307.40 2732.62,3305.65"/>
    </edge>
    <edge id=":4486134247_12" function="internal">
        <lane id=":4486134247_12_0" index="0" disallow="tram rail_urban rail rail_electric rail_fast ship" speed="5.56" length="16.54" shape="2733.40,3312.07 2737.19,3309.88 2739.20,3306.90 2739.44,3303.14 2737.90,3298.59"/>
    </edge>
    <edge id=":4486134247_13" function="internal">
        <lane id=":4486134247_13_0" index="0" disallow="tram rail_urban rail rail_electric rail_fast ship" speed="8.85" length="18.06" shape="2733.40,3312.07 2739.07,3310.49 2743.54,3310.58 2746.80,3312.34 2748.87,3315.76"/>
    </edge>
    <edge id=":4486134247_14" function="internal">
        <lane id=":4486134247_14_0" index="0" disallow="tram rail_urban rail rail_electric rail_fast ship" speed="3.65" length="4.67" shape="2733.40,3312.07 2734.81,3312.39 2735.47,3313.00 2735.38,3313.89 2734.54,3315.06"/>
    </edge>
    <edge id=":4486134260_0" function="internal">
        <lane id=":4486134260_0_0" index="0" disallow="tram rail_urban rail rail_electric rail_fast ship" speed="5.65" length="9.26" shape="2668.18,3334.02 2666.87,3331.55 2665.32,3330.56 2663.54,3331.03 2661.53,3332.96"/>
    </edge>
    <edge id=":4486134260_1" function="internal">
        <lane id=":4486134260_1_0" index="0" disallow="tram rail_urban rail rail_electric rail_fast ship" speed="5.56" length="23.70" shape="2668.18,3334.02 2665.43,3329.82 2660.75,3324.98 2655.60,3320.53 2651.41,3317.55"/>
    </edge>
    <edge id=":4486134260_2" function="internal">
        <lane id=":4486134260_2_0" index="0" disallow="tram rail_urban rail rail_electric rail_fast ship" speed="5.56" length="25.61" shape="2668.18,3334.02 2665.99,3329.08 2662.70,3322.45 2659.26,3315.90 2656.63,3311.17"/>
    </edge>
    <edge id=":4486134260_3" function="internal">
        <lane id=":4486134260_3_0" index="0" disallow="tram rail_urban rail rail_electric rail_fast ship" speed="3.65" length="4.67" shape="2668.18,3334.02 2668.51,3332.61 2669.12,3331.96 2670.01,3332.05 2671.17,3332.90"/>
    </edge>
    <edge id=":4486134260_4" function="internal">
        <lane id=":4486134260_4_0" index="0" disallow="tram rail_urban rail rail_electric rail_fast ship" speed="5.56" length="26.17" shape="2659.39,3309.55 2662.06,3314.35 2665.58,3321.08 2668.95,3327.88 2671.17,3332.90"/>
    </edge>
    <edge id=":4486134260_5" function="internal">
        <lane id=":4486134260_5_0" index="0" disallow="tram rail_urban rail rail_electric rail_fast ship" speed="9.72" length="24.98" shape="2659.39,3309.55 2662.84,3316.64 2664.35,3322.91 2663.91,3328.35 2661.53,3332.96"/>
    </edge>
    <edge id=":4486134260_6" function="internal">
        <lane id=":4486134260_6_0" index="0" disallow="tram rail_urban rail rail_electric rail_fast ship" speed="5.56" length="15.39" shape="2659.39,3309.55 2660.25,3313.53 2658.63,3316.77 2655.39,3318.40 2651.41,3317.55"/>
    </edge>
    <edge id=":4486134260_7" function="internal">
        <lane id=":4486134260_7_0" index="0" disallow="tram rail_urban rail rail_electric rail_fast ship" speed="3.65" length="4.67" shape="2659.39,3309.55 2659.31,3310.99 2658.82,3311.74 2657.93,3311.80 2656.63,3311.17"/>
    </edge>
    <edge id=":4486134260_8" function="internal">
        <lane id=":4486134260_8_0" index="0" disallow="tram rail_urban rail rail_electric rail_fast ship" speed="5.54" length="11.35" shape="2653.02,3314.79 2656.54,3316.49 2658.31,3316.45 2658.34,3314.68 2656.63,3311.17"/>
    </edge>
    <edge id=":4486134260_9" function="internal">
        <lane id=":4486134260_9_0" index="0" disallow="tram rail_urban rail rail_electric rail_fast ship" speed="5.56" length="25.82" shape="2653.02,3314.79 2657.43,3318.03 2663.06,3323.04 2668.21,3328.45 2671.17,3332.90"/>
    </edge>
    <edge id=":4486134260_10" function="internal">
        <lane id=":4486134260_10_0" index="0" disallow="tram rail_urban rail rail_electric rail_fast ship" speed="9.61" length="23.23" shape="2653.02,3314.79 2659.44,3319.37 2662.99,3323.92 2663.69,3328.45 2661.53,3332.96"/>
    </edge>
    <edge id=":4486134260_11" function="internal">
        <lane id=":4486134260_11_0" index="0" disallow="tram rail_urban rail rail_electric rail_fast ship" speed="3.65" length="4.67" shape="2653.02,3314.79 2653.66,3316.09 2653.60,3316.98 2652.85,3317.47 2651.41,3317.55"/>
    </edge>
    <edge id=":4486134260_12" function="internal">
        <lane id=":4486134260_12_0" index="0" disallow="tram rail_urban rail rail_electric rail_fast ship" speed="8.43" length="17.61" shape="2659.03,3330.96 2660.38,3327.84 2659.56,3324.56 2656.57,3321.13 2651.41,3317.55"/>
    </edge>
    <edge id=":4486134260_13" function="internal">
        <lane id=":4486134260_13_0" index="0" disallow="tram rail_urban rail rail_electric rail_fast ship" speed="9.72" length="21.13" shape="2659.03,3330.96 2660.88,3327.22 2661.10,3322.68 2659.68,3317.33 2656.63,3311.17"/>
    </edge>
    <edge id=":4486134260_14" function="internal">
        <lane id=":4486134260_14_0" index="0" disallow="tram rail_urban rail rail_electric rail_fast ship" speed="7.40" length="16.92" shape="2659.03,3330.96 2662.71,3327.43 2665.96,3326.57 2668.78,3328.40 2671.17,3332.90"/>
    </edge>
    <edge id=":4486134396_0" function="internal">
        <lane id=":4486134396_0_0" index="0" disallow="tram rail_urban rail rail_electric rail_fast ship" speed="5.50" length="10.95" shape="2474.92,2806.56 2473.41,2803.16 2472.03,2802.07 2470.78,2803.31 2469.67,2806.86"/>
    </edge>
    <edge id=":4486134396_1" function="internal">
        <lane id=":4486134396_1_0" index="0" disallow="tram rail_urban rail rail_electric rail_fast ship" speed="5.56" length="17.68" shape="2474.92,2806.56 2472.48,2801.15 2469.63,2797.76 2466.35,2796.39 2462.64,2797.05"/>
    </edge>
    <edge id=":4486134396_2" function="internal">
        <lane id=":4486134396_2_0" index="0" disallow="tram rail_urban rail rail_electric rail_fast ship" speed="3.65" length="4.67" shape="2474.92,2806.56 2475.28,2805.16 2475.91,2804.52 2476.80,2804.64 2477.95,2805.51"/>
    </edge>
    <edge id=":4486134396_3" function="internal">
        <lane id=":4486134396_3_0" index="0" disallow="tram rail_urban rail rail_electric rail_fast ship" speed="5.56" length="23.06" shape="2461.39,2794.11 2466.54,2793.06 2471.02,2794.62 2474.82,2798.77 2477.95,2805.51"/>
    </edge>
    <edge id=":4486134396_4" function="internal">
        <lane id=":4486134396_4_0" index="0" disallow="tram rail_urban rail rail_electric rail_fast ship" speed="8.04" length="21.15" shape="2461.39,2794.11 2466.51,2792.94 2469.59,2794.68 2470.65,2799.32 2469.67,2806.86"/>
    </edge>
    <edge id=":4486134396_5" function="internal">
        <lane id=":4486134396_5_0" index="0" disallow="tram rail_urban rail rail_electric rail_fast ship" speed="3.65" length="4.67" shape="2461.39,2794.11 2462.81,2794.37 2463.49,2794.95 2463.43,2795.84 2462.64,2797.05"/>
    </edge>
    <edge id=":4486134396_6" function="internal">
        <lane id=":4486134396_6_0" index="0" disallow="tram rail_urban rail rail_electric rail_fast ship" speed="6.46" length="13.12" shape="2466.55,2806.17 2467.29,2801.14 2466.89,2797.94 2465.34,2796.58 2462.64,2797.05"/>
    </edge>
    <edge id=":4486134396_7" function="internal">
        <lane id=":4486134396_7_0" index="0" disallow="tram rail_urban rail rail_electric rail_fast ship" speed="6.40" length="15.48" shape="2466.55,2806.17 2468.62,2802.61 2471.98,2801.27 2475.48,2802.22 2477.95,2805.51"/>
    </edge>
    <edge id=":4486134513_0" function="internal">
        <lane id=":4486134513_0_0" index="0" disallow="tram rail_urban rail rail_electric rail_fast ship" speed="5.56" length="28.84" shape="2531.98,3292.59 2526.78,3295.35 2518.90,3298.55 2510.83,3301.34 2505.11,3302.83"/>
    </edge>
    <edge id=":4486134513_1" function="internal">
        <lane id=":4486134513_1_0" index="0" disallow="tram rail_urban rail rail_electric rail_fast ship" speed="9.72" length="30.82" shape="2531.98,3292.59 2526.05,3295.68 2519.15,3296.86 2511.28,3296.13 2502.44,3293.50"/>
    </edge>
    <edge id=":4486134513_2" function="internal">
        <lane id=":4486134513_2_0" index="0" disallow="tram rail_urban rail rail_electric rail_fast ship" speed="9.72" length="33.20" shape="2531.98,3292.59 2522.77,3297.89 2515.86,3298.39 2511.26,3294.11 2508.95,3285.03"/>
    </edge>
    <edge id=":4486134513_3" function="internal">
        <lane id=":4486134513_3_0" index="0" disallow="tram rail_urban rail rail_electric rail_fast ship" speed="7.49" length="20.45" shape="2531.98,3292.59 2526.24,3295.99 2522.69,3296.05 2521.31,3292.77 2522.13,3286.15"/>
    </edge>
    <edge id=":4486134513_4" function="internal">
        <lane id=":4486134513_4_0" index="0" disallow="tram rail_urban rail rail_electric rail_fast ship" speed="3.65" length="4.67" shape="2531.98,3292.59 2530.54,3292.67 2529.74,3292.26 2529.59,3291.38 2530.08,3290.02"/>
    </edge>
    <edge id=":4486134513_5" function="internal">
        <lane id=":4486134513_5_0" index="0" disallow="tram rail_urban rail rail_electric rail_fast ship" speed="5.46" length="10.02" shape="2525.25,3286.87 2524.85,3290.11 2525.52,3291.72 2527.26,3291.69 2530.08,3290.02"/>
    </edge>
    <edge id=":4486134513_6" function="internal">
        <lane id=":4486134513_6_0" index="0" disallow="tram rail_urban rail rail_electric rail_fast ship" speed="9.72" length="27.42" shape="2525.25,3286.87 2522.83,3292.89 2518.67,3297.56 2512.77,3300.88 2505.11,3302.83"/>
    </edge>
    <edge id=":4486134513_7" function="internal">
        <lane id=":4486134513_7_0" index="0" speed="10.58" length="28.32" shape="2525.25,3286.87 2522.27,3293.54 2517.45,3296.38 2510.82,3296.12 2502.44,3293.50"/>
    </edge>
    <edge id=":4486134513_8" function="internal">
        <lane id=":4486134513_8_0" index="0" disallow="tram rail_urban rail rail_electric rail_fast ship" speed="7.30" length="22.70" shape="2525.25,3286.87 2521.97,3291.60 2516.68,3292.68 2511.60,3290.39 2508.95,3285.03"/>
    </edge>
    <edge id=":4486134513_9" function="internal">
        <lane id=":4486134513_9_0" index="0" disallow="tram rail_urban rail rail_electric rail_fast ship" speed="8.81" length="34.03" shape="2511.88,3282.15 2513.80,3295.08 2516.14,3300.05 2518.92,3297.08 2522.13,3286.15"/>
    </edge>
    <edge id=":4486134513_10" function="internal">
        <lane id=":4486134513_10_0" index="0" disallow="tram rail_urban rail rail_electric rail_fast ship" speed="9.25" length="27.26" shape="2511.88,3282.15 2513.77,3290.10 2517.43,3294.06 2522.87,3294.04 2530.08,3290.02"/>
    </edge>
    <edge id=":4486134513_11" function="internal">
        <lane id=":4486134513_11_0" index="0" disallow="tram rail_urban rail rail_electric rail_fast ship" speed="9.72" length="23.73" shape="2511.88,3282.15 2512.19,3290.71 2511.16,3297.01 2508.80,3301.05 2505.11,3302.83"/>
    </edge>
    <edge id=":4486134513_12" function="internal">
        <lane id=":4486134513_12_0" index="0" disallow="tram rail_urban rail rail_electric rail_fast ship" speed="8.00" length="19.26" shape="2511.88,3282.15 2511.88,3288.70 2510.30,3292.78 2507.16,3294.38 2502.44,3293.50"/>
    </edge>
    <edge id=":4486134513_13" function="internal">
        <lane id=":4486134513_13_0" index="0" disallow="tram rail_urban rail rail_electric rail_fast ship" speed="3.98" length="6.00" shape="2511.88,3282.15 2512.23,3283.97 2511.86,3285.05 2510.77,3285.41 2508.95,3285.03"/>
    </edge>
    <edge id=":4486134513_14" function="internal">
        <lane id=":4486134513_14_0" index="0" disallow="tram rail_urban rail rail_electric rail_fast ship" speed="5.98" length="10.11" shape="2503.58,3290.52 2506.23,3291.06 2508.01,3290.33 2508.91,3288.32 2508.95,3285.03"/>
    </edge>
    <edge id=":4486134513_15" function="internal">
        <lane id=":4486134513_15_0" index="0" speed="9.38" length="22.03" shape="2503.58,3290.52 2510.79,3292.56 2516.28,3292.52 2520.06,3290.38 2522.13,3286.15"/>
    </edge>
    <edge id=":4486134513_16" function="internal">
        <lane id=":4486134513_16_0" index="0" disallow="tram rail_urban rail rail_electric rail_fast ship" speed="9.72" length="27.60" shape="2503.58,3290.52 2511.62,3292.94 2518.72,3293.66 2524.87,3292.69 2530.08,3290.02"/>
    </edge>
    <edge id=":4486134513_17" function="internal">
        <lane id=":4486134513_17_0" index="0" disallow="tram rail_urban rail rail_electric rail_fast ship" speed="6.60" length="16.85" shape="2503.58,3290.52 2507.50,3293.34 2509.32,3297.22 2508.65,3300.82 2505.11,3302.83"/>
    </edge>
    <edge id=":4486134513_18" function="internal">
        <lane id=":4486134513_18_0" index="0" disallow="tram rail_urban rail rail_electric rail_fast ship" speed="5.90" length="13.06" shape="2504.64,3299.67 2508.24,3298.72 2509.07,3297.38 2507.14,3295.64 2502.44,3293.50"/>
    </edge>
    <edge id=":4486134513_19" function="internal">
        <lane id=":4486134513_19_0" index="0" disallow="tram rail_urban rail rail_electric rail_fast ship" speed="8.75" length="16.53" shape="2504.64,3299.67 2507.05,3298.43 2508.57,3295.58 2509.20,3291.12 2508.95,3285.03"/>
    </edge>
    <edge id=":4486134513_20" function="internal">
        <lane id=":4486134513_20_0" index="0" disallow="tram rail_urban rail rail_electric rail_fast ship" speed="9.72" length="23.57" shape="2504.64,3299.67 2511.32,3297.99 2516.46,3295.17 2520.06,3291.23 2522.13,3286.15"/>
    </edge>
    <edge id=":4486134513_21" function="internal">
        <lane id=":4486134513_21_0" index="0" disallow="tram rail_urban rail rail_electric rail_fast ship" speed="5.56" length="27.29" shape="2504.64,3299.67 2510.14,3298.27 2517.71,3295.69 2525.10,3292.68 2530.08,3290.02"/>
    </edge>
    <edge id=":4486134513_22" function="internal">
        <lane id=":4486134513_22_0" index="0" disallow="tram rail_urban rail rail_electric rail_fast ship" speed="3.65" length="4.67" shape="2504.64,3299.67 2505.94,3300.28 2506.46,3301.01 2506.18,3301.86 2505.11,3302.83"/>
    </edge>
    <edge id=":4486134531_0" function="internal">
        <lane id=":4486134531_0_0" index="0" disallow="tram rail_urban rail rail_electric rail_fast ship" speed="22.22" length="13.91" shape="2474.25,3491.23 2471.87,3488.56 2469.56,3486.10 2467.17,3483.71 2464.55,3481.27"/>
    </edge>
    <edge id=":4486134531_1" function="internal">
        <lane id=":4486134531_1_0" index="0" disallow="tram rail_urban rail rail_electric rail_fast ship" speed="7.83" length="5.76" shape="2474.25,3491.23 2472.04,3487.82 2471.79,3486.14"/>
    </edge>
    <edge id=":4486134531_2" function="internal">
        <lane id=":4486134531_2_0" index="0" disallow="tram rail_urban rail rail_electric rail_fast ship" speed="3.65" length="2.34" shape="2474.25,3491.23 2474.07,3489.80 2474.40,3488.97"/>
    </edge>
    <edge id=":4486134531_8" function="internal">
        <lane id=":4486134531_8_0" index="0" disallow="tram rail_urban rail rail_electric rail_fast ship" speed="7.83" length="8.84" shape="2471.79,3486.14 2471.56,3484.62 2472.79,3481.62 2475.74,3478.83"/>
    </edge>
    <edge id=":4486134531_9" function="internal">
        <lane id=":4486134531_9_0" index="0" disallow="tram rail_urban rail rail_electric rail_fast ship" speed="3.65" length="2.34" shape="2474.40,3488.97 2475.27,3488.75 2476.66,3489.12"/>
    </edge>
    <edge id=":4486134531_3" function="internal">
        <lane id=":4486134531_3_0" index="0" disallow="tram rail_urban rail rail_electric rail_fast ship" speed="6.29" length="9.04" shape="2477.58,3481.44 2475.75,3483.17 2474.99,3485.03 2475.29,3487.01 2476.66,3489.12"/>
    </edge>
    <edge id=":4486134531_4" function="internal">
        <lane id=":4486134531_4_0" index="0" disallow="tram rail_urban rail rail_electric rail_fast ship" speed="8.74" length="14.24" shape="2477.58,3481.44 2474.06,3483.34 2470.72,3483.95 2467.55,3483.26 2464.55,3481.27"/>
    </edge>
    <edge id=":4486134531_5" function="internal">
        <lane id=":4486134531_5_0" index="0" disallow="tram rail_urban rail rail_electric rail_fast ship" speed="7.36" length="9.86" shape="2466.70,3478.90 2468.73,3480.22 2470.92,3480.65 2473.25,3480.19 2475.74,3478.83"/>
    </edge>
    <edge id=":4486134531_6" function="internal">
        <lane id=":4486134531_6_0" index="0" disallow="tram rail_urban rail rail_electric rail_fast ship" speed="22.22" length="14.28" shape="2466.70,3478.90 2469.36,3481.38 2471.84,3483.86 2474.24,3486.41 2476.66,3489.12"/>
    </edge>
    <edge id=":4486134531_7" function="internal">
        <lane id=":4486134531_7_0" index="0" disallow="tram rail_urban rail rail_electric rail_fast ship" speed="3.65" length="2.34" shape="2466.70,3478.90 2467.05,3480.30 2466.81,3481.16"/>
    </edge>
    <edge id=":4486134531_10" function="internal">
        <lane id=":4486134531_10_0" index="0" disallow="tram rail_urban rail rail_electric rail_fast ship" speed="3.65" length="2.34" shape="2466.81,3481.16 2465.98,3481.48 2464.55,3481.27"/>
    </edge>
    <edge id=":5130233478_0" function="internal">
        <lane id=":5130233478_0_0" index="0" disallow="tram rail_urban rail rail_electric rail_fast ship" speed="18.05" length="14.39" shape="2128.51,2981.47 2123.90,2967.84"/>
    </edge>
    <edge id=":5130233478_1" function="internal">
        <lane id=":5130233478_1_0" index="0" disallow="tram rail_urban rail rail_electric rail_fast ship" speed="8.07" length="14.22" shape="2128.51,2981.47 2127.82,2977.68 2128.50,2974.54 2130.58,2972.05 2134.03,2970.22"/>
    </edge>
    <edge id=":5130233478_2" function="internal">