<?xml version="1.0" encoding="UTF-8"?>

<!-- generated on Fri 13 Mar 2020 11:57:55 PM WITA by Eclipse SUMO netedit Version 1.4.0
<configuration xmlns:xsi="http://www.w3.org/2001/XMLSchema-instance" xsi:noNamespaceSchemaLocation="http://sumo.dlr.de/xsd/netconvertConfiguration.xsd">

    <input>
        <sumo-net-file value="sebudi_edit3.net.xml"/>
    </input>

    <output>
        <output-file value="sebudi_edit3.net.xml"/>
    </output>

    <processing>
        <geometry.min-radius.fix.railways value="false"/>
        <geometry.max-grade.fix value="false"/>
        <offset.disable-normalization value="true"/>
        <lefthand value="false"/>
    </processing>

    <junctions>
        <no-turnarounds value="true"/>
        <junctions.corner-detail value="5"/>
        <junctions.limit-turn-speed value="5.5"/>
        <rectangular-lane-cut value="false"/>
    </junctions>

    <pedestrian>
        <walkingareas value="false"/>
    </pedestrian>

    <report>
        <aggregate-warnings value="5"/>
    </report>

</configuration>
-->

<net version="1.3" junctionCornerDetail="5" limitTurnSpeed="5.50" xmlns:xsi="http://www.w3.org/2001/XMLSchema-instance" xsi:noNamespaceSchemaLocation="http://sumo.dlr.de/xsd/net_file.xsd">

    <location netOffset="-329165.89,930795.17" convBoundary="18.57,0.00,3234.80,4455.53" origBoundary="115.448347,-8.417527,115.477864,-8.377353" projParameter="+proj=utm +zone=50 +ellps=WGS84 +datum=WGS84 +units=m +no_defs"/>

    <type id="highway.bridleway" priority="1" numLanes="1" speed="2.78" allow="pedestrian" oneway="1" width="2.00"/>
    <type id="highway.bus_guideway" priority="1" numLanes="1" speed="27.78" allow="bus" oneway="1"/>
    <type id="highway.cycleway" priority="1" numLanes="1" speed="8.33" allow="bicycle" oneway="0" width="1.00"/>
    <type id="highway.footway" priority="1" numLanes="1" speed="2.78" allow="pedestrian" oneway="1" width="2.00"/>
    <type id="highway.ford" priority="1" numLanes="1" speed="2.78" allow="army" oneway="0"/>
    <type id="highway.living_street" priority="2" numLanes="1" speed="2.78" disallow="tram rail_urban rail rail_electric rail_fast ship" oneway="0"/>
    <type id="highway.motorway" priority="14" numLanes="2" speed="39.44" allow="private emergency authority army vip passenger hov taxi bus coach delivery truck trailer motorcycle evehicle custom1 custom2" oneway="1"/>
    <type id="highway.motorway_link" priority="9" numLanes="1" speed="22.22" allow="private emergency authority army vip passenger hov taxi bus coach delivery truck trailer motorcycle evehicle custom1 custom2" oneway="1"/>
    <type id="highway.path" priority="1" numLanes="1" speed="2.78" allow="pedestrian bicycle" oneway="1" width="2.00"/>
    <type id="highway.pedestrian" priority="1" numLanes="1" speed="2.78" allow="pedestrian" oneway="1" width="2.00"/>
    <type id="highway.primary" priority="12" numLanes="2" speed="27.78" disallow="tram rail_urban rail rail_electric rail_fast ship" oneway="0"/>
    <type id="highway.primary_link" priority="7" numLanes="1" speed="22.22" disallow="tram rail_urban rail rail_electric rail_fast ship" oneway="0"/>
    <type id="highway.raceway" priority="15" numLanes="2" speed="83.33" allow="vip" oneway="0"/>
    <type id="highway.residential" priority="3" numLanes="1" speed="13.89" disallow="tram rail_urban rail rail_electric rail_fast ship" oneway="0"/>
    <type id="highway.secondary" priority="11" numLanes="1" speed="27.78" disallow="tram rail_urban rail rail_electric rail_fast ship" oneway="0"/>
    <type id="highway.secondary_link" priority="6" numLanes="1" speed="22.22" disallow="tram rail_urban rail rail_electric rail_fast ship" oneway="0"/>
    <type id="highway.service" priority="1" numLanes="1" speed="5.56" allow="pedestrian delivery bicycle" oneway="0"/>
    <type id="highway.stairs" priority="1" numLanes="1" speed="1.39" allow="pedestrian" oneway="1" width="2.00"/>
    <type id="highway.step" priority="1" numLanes="1" speed="1.39" allow="pedestrian" oneway="1" width="2.00"/>
    <type id="highway.steps" priority="1" numLanes="1" speed="1.39" allow="pedestrian" oneway="1" width="2.00"/>
    <type id="highway.tertiary" priority="10" numLanes="1" speed="22.22" disallow="tram rail_urban rail rail_electric rail_fast ship" oneway="0"/>
    <type id="highway.tertiary_link" priority="5" numLanes="1" speed="22.22" disallow="tram rail_urban rail rail_electric rail_fast ship" oneway="0"/>
    <type id="highway.track" priority="1" numLanes="1" speed="5.56" disallow="tram rail_urban rail rail_electric rail_fast ship" oneway="0"/>
    <type id="highway.trunk" priority="13" numLanes="2" speed="27.78" disallow="pedestrian bicycle tram rail_urban rail rail_electric rail_fast ship" oneway="0"/>
    <type id="highway.trunk_link" priority="8" numLanes="1" speed="22.22" disallow="pedestrian bicycle tram rail_urban rail rail_electric rail_fast ship" oneway="0"/>
    <type id="highway.unclassified" priority="4" numLanes="1" speed="13.89" disallow="tram rail_urban rail rail_electric rail_fast ship" oneway="0"/>
    <type id="highway.unsurfaced" priority="1" numLanes="1" speed="8.33" disallow="tram rail_urban rail rail_electric rail_fast ship" oneway="0"/>
    <type id="railway.highspeed" priority="21" numLanes="1" speed="69.44" allow="rail_fast" oneway="1"/>
    <type id="railway.light_rail" priority="19" numLanes="1" speed="27.78" allow="rail_urban" oneway="1"/>
    <type id="railway.preserved" priority="16" numLanes="1" speed="27.78" allow="rail" oneway="1"/>
    <type id="railway.rail" priority="20" numLanes="1" speed="44.44" allow="rail" oneway="1"/>
    <type id="railway.subway" priority="18" numLanes="1" speed="27.78" allow="rail_urban" oneway="1"/>
    <type id="railway.tram" priority="17" numLanes="1" speed="13.89" allow="tram" oneway="1"/>

    <edge id=":1553949743_0" function="internal">
        <lane id=":1553949743_0_0" index="0" disallow="tram rail_urban rail rail_electric rail_fast ship" speed="9.94" length="21.74" shape="2049.23,2719.27 2048.20,2714.09 2049.40,2709.55 2052.83,2705.62 2058.49,2702.33"/>
    </edge>
    <edge id=":1553949743_1" function="internal">
        <lane id=":1553949743_1_0" index="0" speed="7.77" length="19.67" shape="2049.23,2719.27 2048.09,2714.08 2049.55,2710.94 2053.60,2709.88 2060.24,2710.87"/>
    </edge>
    <edge id=":1553949743_2" function="internal">
        <lane id=":1553949743_2_0" index="0" disallow="tram rail_urban rail rail_electric rail_fast ship" speed="3.65" length="4.67" shape="2049.23,2719.27 2049.54,2717.86 2050.14,2717.20 2051.03,2717.28 2052.21,2718.11"/>
    </edge>
    <edge id=":1553949743_3" function="internal">
        <lane id=":1553949743_3_0" index="0" disallow="tram rail_urban rail rail_electric rail_fast ship" speed="6.10" length="11.52" shape="2059.44,2714.00 2055.31,2713.31 2052.72,2713.76 2051.69,2715.36 2052.21,2718.11"/>
    </edge>
    <edge id=":1553949743_4" function="internal">
        <lane id=":1553949743_4_0" index="0" disallow="tram rail_urban rail rail_electric rail_fast ship" speed="7.55" length="21.19" shape="2059.44,2714.00 2052.89,2711.60 2050.54,2708.85 2052.41,2705.76 2058.49,2702.33"/>
    </edge>
    <edge id=":1553949743_5" function="internal">
        <lane id=":1553949743_5_0" index="0" speed="5.46" length="10.22" shape="2059.78,2705.26 2056.84,2706.91 2055.94,2708.40 2057.08,2709.72 2060.24,2710.87"/>
    </edge>
    <edge id=":1553949743_6" function="internal">
        <lane id=":1553949743_6_0" index="0" disallow="tram rail_urban rail rail_electric rail_fast ship" speed="8.78" length="16.75" shape="2059.78,2705.26 2055.28,2707.83 2052.52,2710.83 2051.49,2714.26 2052.21,2718.11"/>
    </edge>
    <edge id=":1553949743_7" function="internal">
        <lane id=":1553949743_7_0" index="0" disallow="tram rail_urban rail rail_electric rail_fast ship" speed="3.65" length="4.67" shape="2059.78,2705.26 2058.36,2705.01 2057.67,2704.44 2057.71,2703.54 2058.49,2702.33"/>
    </edge>
    <edge id=":4486134560_0" function="internal">
        <lane id=":4486134560_0_0" index="0" disallow="tram rail_urban rail rail_electric rail_fast ship" speed="9.05" length="9.50" shape="2209.99,2695.43 2208.88,2692.62 2207.59,2690.46 2206.14,2688.93 2204.51,2688.05"/>
    </edge>
    <edge id=":4486134560_1" function="internal">
        <lane id=":4486134560_1_0" index="0" disallow="tram rail_urban rail rail_electric rail_fast ship" speed="7.57" length="4.46" shape="2209.99,2695.43 2209.44,2691.75 2209.70,2691.05"/>
    </edge>
    <edge id=":4486134560_2" function="internal">
        <lane id=":4486134560_2_0" index="0" disallow="tram rail_urban rail rail_electric rail_fast ship" speed="3.68" length="1.91" shape="2209.99,2695.43 2210.68,2694.12 2211.04,2693.89"/>
    </edge>
    <edge id=":4486134560_9" function="internal">
        <lane id=":4486134560_9_0" index="0" disallow="tram rail_urban rail rail_electric rail_fast ship" speed="7.57" length="9.90" shape="2209.70,2691.05 2210.48,2688.94 2213.12,2686.98 2217.35,2685.89"/>
    </edge>
    <edge id=":4486134560_10" function="internal">
        <lane id=":4486134560_10_0" index="0" disallow="tram rail_urban rail rail_electric rail_fast ship" speed="3.68" length="2.88" shape="2211.04,2693.89 2211.45,2693.63 2212.31,2693.96 2213.25,2695.10"/>
    </edge>
    <edge id=":4486134560_3" function="internal">
        <lane id=":4486134560_3_0" index="0" disallow="tram rail_urban rail rail_electric rail_fast ship" speed="6.13" length="9.00" shape="2217.77,2689.06 2215.15,2689.75 2213.52,2690.98 2212.89,2692.77 2213.25,2695.10"/>
    </edge>
    <edge id=":4486134560_4" function="internal">
        <lane id=":4486134560_4_0" index="0" disallow="tram rail_urban rail rail_electric rail_fast ship" speed="9.72" length="13.43" shape="2217.77,2689.06 2214.28,2689.40 2211.06,2689.39 2207.89,2688.96 2204.51,2688.05"/>
    </edge>
    <edge id=":4486134560_5" function="internal">
        <lane id=":4486134560_5_0" index="0" disallow="tram rail_urban rail rail_electric rail_fast ship" speed="3.65" length="4.67" shape="2217.77,2689.06 2216.48,2688.42 2215.98,2687.68 2216.27,2686.84 2217.35,2685.89"/>
    </edge>
    <edge id=":4486134560_6" function="internal">
        <lane id=":4486134560_6_0" index="0" disallow="tram rail_urban rail rail_electric rail_fast ship" speed="9.72" length="12.01" shape="2205.51,2685.01 2208.67,2685.90 2211.35,2686.28 2214.08,2686.25 2217.35,2685.89"/>
    </edge>
    <edge id=":4486134560_7" function="internal">
        <lane id=":4486134560_7_0" index="0" disallow="tram rail_urban rail rail_electric rail_fast ship" speed="10.57" length="13.15" shape="2205.51,2685.01 2207.86,2686.25 2209.93,2688.35 2211.72,2691.30 2213.25,2695.10"/>
    </edge>
    <edge id=":4486134560_8" function="internal">
        <lane id=":4486134560_8_0" index="0" disallow="tram rail_urban rail rail_electric rail_fast ship" speed="3.65" length="2.61" shape="2205.51,2685.01 2206.40,2686.14 2206.53,2687.03 2206.34,2687.22"/>
    </edge>
    <edge id=":4486134560_11" function="internal">
        <lane id=":4486134560_11_0" index="0" disallow="tram rail_urban rail rail_electric rail_fast ship" speed="3.65" length="2.07" shape="2206.34,2687.22 2205.90,2687.66 2204.51,2688.05"/>
    </edge>
    <edge id=":5130233478_0" function="internal">
        <lane id=":5130233478_0_0" index="0" disallow="tram rail_urban rail rail_electric rail_fast ship" speed="6.08" length="7.60" shape="2131.23,2974.64 2129.20,2975.07 2127.50,2974.75 2126.14,2973.68 2125.13,2971.87"/>
    </edge>
    <edge id=":5130233478_1" function="internal">
        <lane id=":5130233478_1_0" index="0" disallow="tram rail_urban rail rail_electric rail_fast ship" speed="3.65" length="4.67" shape="2131.23,2974.64 2129.83,2974.30 2129.18,2973.68 2129.29,2972.79 2130.14,2971.63"/>
    </edge>
    <edge id=":5130233478_2" function="internal">
        <lane id=":5130233478_2_0" index="0" disallow="tram rail_urban rail rail_electric rail_fast ship" speed="3.91" length="2.53" shape="2128.11,2970.71 2128.45,2971.31 2128.90,2971.67 2129.46,2971.77 2130.14,2971.63"/>
    </edge>
    <edge id=":5130233478_3" function="internal">
        <lane id=":5130233478_3_0" index="0" disallow="tram rail_urban rail rail_electric rail_fast ship" speed="3.65" length="4.67" shape="2128.11,2970.71 2127.80,2972.12 2127.20,2972.78 2126.31,2972.70 2125.13,2971.87"/>
    </edge>
    <edge id=":5130333344_0" function="internal">
        <lane id=":5130333344_0_0" index="0" disallow="tram rail_urban rail rail_electric rail_fast ship" speed="7.17" length="9.78" shape="2291.43,2934.28 2290.00,2932.31 2288.12,2931.17 2285.80,2930.86 2283.05,2931.39"/>
    </edge>
    <edge id=":5130333344_1" function="internal">
        <lane id=":5130333344_1_0" index="0" disallow="tram rail_urban rail rail_electric rail_fast ship" speed="13.89" length="14.38" shape="2291.43,2934.28 2285.25,2921.30"/>
    </edge>
    <edge id=":5130333344_2" function="internal">
        <lane id=":5130333344_2_0" index="0" disallow="tram rail_urban rail rail_electric rail_fast ship" speed="3.65" length="2.34" shape="2291.43,2934.28 2291.60,2932.85 2292.13,2932.13"/>
    </edge>
    <edge id=":5130333344_9" function="internal">
        <lane id=":5130333344_9_0" index="0" disallow="tram rail_urban rail rail_electric rail_fast ship" speed="3.65" length="2.34" shape="2292.13,2932.13 2293.03,2932.12 2294.28,2932.83"/>
    </edge>
    <edge id=":5130333344_3" function="internal">
        <lane id=":5130333344_3_0" index="0" disallow="tram rail_urban rail rail_electric rail_fast ship" speed="13.89" length="14.21" shape="2288.17,2919.99 2294.28,2932.83"/>
    </edge>
    <edge id=":5130333344_4" function="internal">
        <lane id=":5130333344_4_0" index="0" disallow="tram rail_urban rail rail_electric rail_fast ship" speed="7.81" length="5.73" shape="2288.17,2919.99 2289.29,2923.92 2289.04,2925.55"/>
    </edge>
    <edge id=":5130333344_5" function="internal">
        <lane id=":5130333344_5_0" index="0" disallow="tram rail_urban rail rail_electric rail_fast ship" speed="3.65" length="2.34" shape="2288.17,2919.99 2287.93,2921.42 2287.36,2922.11"/>
    </edge>
    <edge id=":5130333344_10" function="internal">
        <lane id=":5130333344_10_0" index="0" disallow="tram rail_urban rail rail_electric rail_fast ship" speed="7.81" length="8.92" shape="2289.04,2925.55 2288.81,2927.13 2286.73,2929.62 2283.05,2931.39"/>
    </edge>
    <edge id=":5130333344_11" function="internal">
        <lane id=":5130333344_11_0" index="0" disallow="tram rail_urban rail rail_electric rail_fast ship" speed="3.65" length="2.34" shape="2287.36,2922.11 2286.47,2922.07 2285.25,2921.30"/>
    </edge>
    <edge id=":5130333344_6" function="internal">
        <lane id=":5130333344_6_0" index="0" disallow="tram rail_urban rail rail_electric rail_fast ship" speed="6.27" length="9.04" shape="2282.09,2928.33 2284.36,2927.24 2285.64,2925.71 2285.94,2923.73 2285.25,2921.30"/>
    </edge>
    <edge id=":5130333344_7" function="internal">
        <lane id=":5130333344_7_0" index="0" disallow="tram rail_urban rail rail_electric rail_fast ship" speed="8.57" length="14.33" shape="2282.09,2928.33 2286.05,2927.61 2289.40,2928.11 2292.15,2929.85 2294.28,2932.83"/>
    </edge>
    <edge id=":5130333344_8" function="internal">
        <lane id=":5130333344_8_0" index="0" disallow="tram rail_urban rail rail_electric rail_fast ship" speed="3.65" length="4.67" shape="2282.09,2928.33 2283.47,2928.74 2284.09,2929.38 2283.95,2930.26 2283.05,2931.39"/>
    </edge>
    <edge id=":5130333345_0" function="internal">
        <lane id=":5130333345_0_0" index="0" disallow="tram rail_urban rail rail_electric rail_fast ship" speed="6.07" length="8.10" shape="2308.75,2961.17 2309.47,2963.29 2309.32,2965.09 2308.29,2966.58 2306.38,2967.75"/>
    </edge>
    <edge id=":5130333345_1" function="internal">
        <lane id=":5130333345_1_0" index="0" disallow="tram rail_urban rail rail_electric rail_fast ship" speed="3.65" length="4.67" shape="2308.75,2961.17 2308.58,2962.60 2308.05,2963.32 2307.15,2963.33 2305.90,2962.62"/>
    </edge>
    <edge id=":5130333345_2" function="internal">
        <lane id=":5130333345_2_0" index="0" disallow="tram rail_urban rail rail_electric rail_fast ship" speed="3.90" length="2.70" shape="2305.11,2964.82 2305.74,2964.43 2306.09,2963.93 2306.14,2963.33 2305.90,2962.62"/>
    </edge>
    <edge id=":5130333345_3" function="internal">
        <lane id=":5130333345_3_0" index="0" disallow="tram rail_urban rail rail_electric rail_fast ship" speed="3.65" length="4.67" shape="2305.11,2964.82 2306.53,2965.07 2307.21,2965.65 2307.16,2966.54 2306.38,2967.75"/>
    </edge>
    <edge id=":6584935018_0" function="internal">
        <lane id=":6584935018_0_0" index="0" disallow="tram rail_urban rail rail_electric rail_fast ship" speed="7.22" length="10.28" shape="2243.79,2949.42 2242.39,2947.04 2240.54,2945.57 2238.23,2945.02 2235.47,2945.38"/>
    </edge>
    <edge id=":6584935018_1" function="internal">
        <lane id=":6584935018_1_0" index="0" speed="13.89" length="15.17" shape="2243.79,2949.42 2238.03,2935.39"/>
    </edge>
    <edge id=":6584935018_2" function="internal">
        <lane id=":6584935018_2_0" index="0" disallow="tram rail_urban rail rail_electric rail_fast ship" speed="7.82" length="14.60" shape="2243.79,2949.42 2242.79,2945.48 2243.35,2942.29 2245.48,2939.85 2249.17,2938.15"/>
    </edge>
    <edge id=":6584935018_3" function="internal">
        <lane id=":6584935018_3_0" index="0" disallow="tram rail_urban rail rail_electric rail_fast ship" speed="3.65" length="4.67" shape="2243.79,2949.42 2244.07,2948.01 2244.66,2947.33 2245.55,2947.39 2246.75,2948.20"/>
    </edge>
    <edge id=":6584935018_4" function="internal">
        <lane id=":6584935018_4_0" index="0" disallow="tram rail_urban rail rail_electric rail_fast ship" speed="6.29" length="9.04" shape="2250.08,2941.22 2247.79,2942.27 2246.47,2943.78 2246.13,2945.76 2246.75,2948.20"/>
    </edge>
    <edge id=":6584935018_5" function="internal">
        <lane id=":6584935018_5_0" index="0" disallow="tram rail_urban rail rail_electric rail_fast ship" speed="13.89" length="15.19" shape="2250.08,2941.22 2235.47,2945.38"/>
    </edge>
    <edge id=":6584935018_6" function="internal">
        <lane id=":6584935018_6_0" index="0" speed="8.51" length="6.26" shape="2250.08,2941.22 2246.09,2941.81 2243.92,2941.31"/>
    </edge>
    <edge id=":6584935018_7" function="internal">
        <lane id=":6584935018_7_0" index="0" disallow="tram rail_urban rail rail_electric rail_fast ship" speed="3.65" length="2.34" shape="2250.08,2941.22 2248.70,2940.79 2248.09,2940.14"/>
    </edge>
    <edge id=":6584935018_15" function="internal">
        <lane id=":6584935018_15_0" index="0" speed="8.51" length="8.69" shape="2243.92,2941.31 2242.75,2941.04 2240.06,2938.90 2238.03,2935.39"/>
    </edge>
    <edge id=":6584935018_16" function="internal">
        <lane id=":6584935018_16_0" index="0" disallow="tram rail_urban rail rail_electric rail_fast ship" speed="3.65" length="2.34" shape="2248.09,2940.14 2248.24,2939.26 2249.17,2938.15"/>
    </edge>
    <edge id=":6584935018_8" function="internal">
        <lane id=":6584935018_8_0" index="0" disallow="tram rail_urban rail rail_electric rail_fast ship" speed="7.11" length="10.15" shape="2240.99,2934.18 2242.37,2936.57 2244.20,2938.03 2246.46,2938.55 2249.17,2938.15"/>
    </edge>
    <edge id=":6584935018_9" function="internal">
        <lane id=":6584935018_9_0" index="0" disallow="tram rail_urban rail rail_electric rail_fast ship" speed="13.89" length="15.15" shape="2240.99,2934.18 2246.75,2948.20"/>
    </edge>
    <edge id=":6584935018_10" function="internal">
        <lane id=":6584935018_10_0" index="0" disallow="tram rail_urban rail rail_electric rail_fast ship" speed="7.80" length="14.67" shape="2240.99,2934.18 2241.98,2938.15 2241.39,2941.34 2239.22,2943.75 2235.47,2945.38"/>
    </edge>
    <edge id=":6584935018_11" function="internal">
        <lane id=":6584935018_11_0" index="0" speed="6.26" length="9.04" shape="2234.62,2942.30 2236.93,2941.29 2238.27,2939.80 2238.64,2937.84 2238.03,2935.39"/>
    </edge>
    <edge id=":6584935018_12" function="internal">
        <lane id=":6584935018_12_0" index="0" disallow="tram rail_urban rail rail_electric rail_fast ship" speed="13.89" length="15.13" shape="2234.62,2942.30 2249.17,2938.15"/>
    </edge>
    <edge id=":6584935018_13" function="internal">
        <lane id=":6584935018_13_0" index="0" disallow="tram rail_urban rail rail_electric rail_fast ship" speed="8.60" length="6.09" shape="2234.62,2942.30 2238.64,2941.77 2240.62,2942.25"/>
    </edge>
    <edge id=":6584935018_14" function="internal">
        <lane id=":6584935018_14_0" index="0" disallow="tram rail_urban rail rail_electric rail_fast ship" speed="3.65" length="2.34" shape="2234.62,2942.30 2235.99,2942.75 2236.59,2943.42"/>
    </edge>
    <edge id=":6584935018_17" function="internal">
        <lane id=":6584935018_17_0" index="0" disallow="tram rail_urban rail rail_electric rail_fast ship" speed="8.60" length="8.90" shape="2240.62,2942.25 2242.00,2942.58 2244.70,2944.72 2246.75,2948.20"/>
    </edge>
    <edge id=":6584935018_18" function="internal">
        <lane id=":6584935018_18_0" index="0" disallow="tram rail_urban rail rail_electric rail_fast ship" speed="3.65" length="2.34" shape="2236.59,2943.42 2236.41,2944.30 2235.47,2945.38"/>
    </edge>
    <edge id=":6584935019_0" function="internal">
        <lane id=":6584935019_0_0" index="0" disallow="tram rail_urban rail rail_electric rail_fast ship" speed="6.08" length="7.83" shape="2264.23,2986.03 2262.16,2986.60 2260.41,2986.36 2258.98,2985.32 2257.89,2983.47"/>
    </edge>
    <edge id=":6584935019_1" function="internal">
        <lane id=":6584935019_1_0" index="0" disallow="tram rail_urban rail rail_electric rail_fast ship" speed="3.65" length="2.65" shape="2264.23,2986.03 2262.81,2985.78 2262.13,2985.20 2262.14,2984.88"/>
    </edge>
    <edge id=":6584935019_4" function="internal">
        <lane id=":6584935019_4_0" index="0" disallow="tram rail_urban rail rail_electric rail_fast ship" speed="3.65" length="2.02" shape="2262.14,2984.88 2262.18,2984.31 2262.96,2983.10"/>
    </edge>
    <edge id=":6584935019_2" function="internal">
        <lane id=":6584935019_2_0" index="0" disallow="tram rail_urban rail rail_electric rail_fast ship" speed="3.90" length="2.61" shape="2260.84,2982.24 2261.21,2982.86 2261.68,2983.21 2262.27,2983.29 2262.96,2983.10"/>
    </edge>
    <edge id=":6584935019_3" function="internal">
        <lane id=":6584935019_3_0" index="0" disallow="tram rail_urban rail rail_electric rail_fast ship" speed="3.65" length="2.08" shape="2260.84,2982.24 2260.56,2983.66 2260.15,2984.14"/>
    </edge>
    <edge id=":6584935019_5" function="internal">
        <lane id=":6584935019_5_0" index="0" disallow="tram rail_urban rail rail_electric rail_fast ship" speed="3.65" length="2.59" shape="2260.15,2984.14 2259.98,2984.33 2259.09,2984.27 2257.89,2983.47"/>
    </edge>
    <edge id=":6584935028_0" function="internal">
        <lane id=":6584935028_0_0" index="0" speed="7.01" length="9.64" shape="2254.84,2851.95 2253.55,2849.87 2251.79,2848.63 2249.54,2848.21 2246.82,2848.63"/>
    </edge>
    <edge id=":6584935028_1" function="internal">
        <lane id=":6584935028_1_0" index="0" disallow="tram rail_urban rail rail_electric rail_fast ship" speed="13.89" length="14.41" shape="2254.84,2851.95 2249.37,2838.62"/>
    </edge>
    <edge id=":6584935028_2" function="internal">
        <lane id=":6584935028_2_0" index="0" disallow="tram rail_urban rail rail_electric rail_fast ship" speed="3.65" length="2.34" shape="2254.84,2851.95 2255.11,2850.54 2255.70,2849.86"/>
    </edge>
    <edge id=":6584935028_8" function="internal">
        <lane id=":6584935028_8_0" index="0" disallow="tram rail_urban rail rail_electric rail_fast ship" speed="3.65" length="2.34" shape="2255.70,2849.86 2256.59,2849.92 2257.79,2850.71"/>
    </edge>
    <edge id=":6584935028_3" function="internal">
        <lane id=":6584935028_3_0" index="0" disallow="tram rail_urban rail rail_electric rail_fast ship" speed="13.89" length="14.35" shape="2252.34,2837.43 2257.79,2850.71"/>
    </edge>
    <edge id=":6584935028_4" function="internal">
        <lane id=":6584935028_4_0" index="0" speed="7.82" length="5.88" shape="2252.34,2837.43 2253.30,2841.38 2252.96,2843.16"/>
    </edge>
    <edge id=":6584935028_5" function="internal">
        <lane id=":6584935028_5_0" index="0" disallow="tram rail_urban rail rail_electric rail_fast ship" speed="3.65" length="2.34" shape="2252.34,2837.43 2252.05,2838.84 2251.45,2839.51"/>
    </edge>
    <edge id=":6584935028_9" function="internal">
        <lane id=":6584935028_9_0" index="0" speed="7.82" length="8.73" shape="2252.96,2843.16 2252.70,2844.56 2250.54,2846.98 2246.82,2848.63"/>
    </edge>
    <edge id=":6584935028_10" function="internal">
        <lane id=":6584935028_10_0" index="0" disallow="tram rail_urban rail rail_electric rail_fast ship" speed="3.65" length="2.34" shape="2251.45,2839.51 2250.56,2839.44 2249.37,2838.62"/>
    </edge>
    <edge id=":6584935028_6" function="internal">
        <lane id=":6584935028_6_0" index="0" disallow="tram rail_urban rail rail_electric rail_fast ship" speed="6.29" length="9.05" shape="2245.96,2845.56 2248.26,2844.54 2249.59,2843.04 2249.96,2841.07 2249.37,2838.62"/>
    </edge>
    <edge id=":6584935028_7" function="internal">
        <lane id=":6584935028_7_0" index="0" disallow="tram rail_urban rail rail_electric rail_fast ship" speed="8.42" length="14.34" shape="2245.96,2845.56 2249.94,2844.97 2253.24,2845.63 2255.85,2847.54 2257.79,2850.71"/>
    </edge>
    <edge id=":6584935051_0" function="internal">
        <lane id=":6584935051_0_0" index="0" speed="6.99" length="9.69" shape="2236.83,2808.22 2235.50,2805.94 2233.75,2804.55 2231.59,2804.03 2229.02,2804.39"/>
    </edge>
    <edge id=":6584935051_1" function="internal">
        <lane id=":6584935051_1_0" index="0" disallow="tram rail_urban rail rail_electric rail_fast ship" speed="13.89" length="14.90" shape="2236.83,2808.22 2235.57,2804.70 2234.48,2801.13 2233.27,2797.62 2231.66,2794.27"/>
    </edge>
    <edge id=":6584935051_2" function="internal">
        <lane id=":6584935051_2_0" index="0" disallow="tram rail_urban rail rail_electric rail_fast ship" speed="7.74" length="6.78" shape="2236.83,2808.22 2236.40,2805.01 2237.30,2801.59"/>
    </edge>
    <edge id=":6584935051_3" function="internal">
        <lane id=":6584935051_3_0" index="0" disallow="tram rail_urban rail rail_electric rail_fast ship" speed="3.65" length="2.34" shape="2236.83,2808.22 2237.11,2806.81 2237.69,2806.13"/>
    </edge>
    <edge id=":6584935051_15" function="internal">
        <lane id=":6584935051_15_0" index="0" disallow="tram rail_urban rail rail_electric rail_fast ship" speed="7.74" length="6.80" shape="2237.30,2801.59 2239.24,2798.62 2241.91,2796.76"/>
    </edge>
    <edge id=":6584935051_16" function="internal">
        <lane id=":6584935051_16_0" index="0" disallow="tram rail_urban rail rail_electric rail_fast ship" speed="3.65" length="2.34" shape="2237.69,2806.13 2238.59,2806.20 2239.78,2807.00"/>
    </edge>
    <edge id=":6584935051_4" function="internal">
        <lane id=":6584935051_4_0" index="0" disallow="tram rail_urban rail rail_electric rail_fast ship" speed="6.46" length="9.12" shape="2243.03,2799.76 2240.80,2800.97 2239.51,2802.58 2239.18,2804.59 2239.78,2807.00"/>
    </edge>
    <edge id=":6584935051_5" function="internal">
        <lane id=":6584935051_5_0" index="0" speed="13.89" length="14.76" shape="2243.03,2799.76 2229.02,2804.39"/>
    </edge>
    <edge id=":6584935051_6" function="internal">
        <lane id=":6584935051_6_0" index="0" disallow="tram rail_urban rail rail_electric rail_fast ship" speed="8.46" length="13.86" shape="2243.03,2799.76 2239.81,2800.35 2236.84,2799.63 2234.13,2797.61 2231.66,2794.27"/>
    </edge>
    <edge id=":6584935051_7" function="internal">
        <lane id=":6584935051_7_0" index="0" disallow="tram rail_urban rail rail_electric rail_fast ship" speed="3.65" length="4.67" shape="2243.03,2799.76 2241.63,2799.43 2240.97,2798.82 2241.07,2797.93 2241.91,2796.76"/>
    </edge>
    <edge id=":6584935051_8" function="internal">
        <lane id=":6584935051_8_0" index="0" disallow="tram rail_urban rail rail_electric rail_fast ship" speed="6.81" length="8.66" shape="2234.82,2793.33 2236.36,2795.41 2238.05,2796.68 2239.91,2797.13 2241.91,2796.76"/>
    </edge>
    <edge id=":6584935051_9" function="internal">
        <lane id=":6584935051_9_0" index="0" disallow="tram rail_urban rail rail_electric rail_fast ship" speed="13.89" length="14.57" shape="2234.82,2793.33 2236.39,2796.63 2237.53,2800.05 2238.56,2803.52 2239.78,2807.00"/>
    </edge>
    <edge id=":6584935051_10" function="internal">
        <lane id=":6584935051_10_0" index="0" speed="7.28" length="6.89" shape="2234.82,2793.33 2235.36,2796.41 2234.21,2799.77 2234.08,2799.93"/>
    </edge>
    <edge id=":6584935051_11" function="internal">
        <lane id=":6584935051_11_0" index="0" disallow="tram rail_urban rail rail_electric rail_fast ship" speed="3.69" length="2.17" shape="2234.82,2793.33 2234.38,2794.75 2233.89,2795.21"/>
    </edge>
    <edge id=":6584935051_17" function="internal">
        <lane id=":6584935051_17_0" index="0" speed="7.28" length="6.86" shape="2234.08,2799.93 2231.91,2802.68 2229.02,2804.39"/>
    </edge>
    <edge id=":6584935051_18" function="internal">
        <lane id=":6584935051_18_0" index="0" disallow="tram rail_urban rail rail_electric rail_fast ship" speed="3.69" length="2.65" shape="2233.89,2795.21 2233.71,2795.38 2232.81,2795.22 2231.66,2794.27"/>
    </edge>
    <edge id=":6584935051_12" function="internal">