<?xml version="1.0" encoding="UTF-8"?>

<!-- generated on Fri 13 Mar 2020 04:11:38 PM WITA by Eclipse SUMO netedit Version 1.4.0
<configuration xmlns:xsi="http://www.w3.org/2001/XMLSchema-instance" xsi:noNamespaceSchemaLocation="http://sumo.dlr.de/xsd/netconvertConfiguration.xsd">

    <input>
        <sumo-net-file value="sebudi_track1.net.xml"/>
    </input>

    <output>
        <output-file value="/home/adisaputra/NS/voip/Project-Jitter-Buffer-master/osmfiles/netfiles/sebudi_bikinoptimal.net.xml"/>
    </output>

    <processing>
        <geometry.min-radius.fix.railways value="false"/>
        <geometry.max-grade.fix value="false"/>
        <offset.disable-normalization value="true"/>
        <lefthand value="false"/>
    </processing>

    <junctions>
        <no-turnarounds value="true"/>
        <junctions.corner-detail value="5"/>
        <junctions.limit-turn-speed value="5.5"/>
        <rectangular-lane-cut value="false"/>
    </junctions>

    <pedestrian>
        <walkingareas value="false"/>
    </pedestrian>

    <report>
        <aggregate-warnings value="5"/>
    </report>

</configuration>
-->

<net version="1.3" junctionCornerDetail="5" limitTurnSpeed="5.50" xmlns:xsi="http://www.w3.org/2001/XMLSchema-instance" xsi:noNamespaceSchemaLocation="http://sumo.dlr.de/xsd/net_file.xsd">

    <location netOffset="-329165.89,930795.17" convBoundary="18.57,0.00,3234.80,4455.53" origBoundary="115.448347,-8.417527,115.477864,-8.377353" projParameter="+proj=utm +zone=50 +ellps=WGS84 +datum=WGS84 +units=m +no_defs"/>

    <type id="highway.bridleway" priority="1" numLanes="1" speed="2.78" allow="pedestrian" oneway="1" width="2.00"/>
    <type id="highway.bus_guideway" priority="1" numLanes="1" speed="27.78" allow="bus" oneway="1"/>
    <type id="highway.cycleway" priority="1" numLanes="1" speed="8.33" allow="bicycle" oneway="0" width="1.00"/>
    <type id="highway.footway" priority="1" numLanes="1" speed="2.78" allow="pedestrian" oneway="1" width="2.00"/>
    <type id="highway.ford" priority="1" numLanes="1" speed="2.78" allow="army" oneway="0"/>
    <type id="highway.living_street" priority="2" numLanes="1" speed="2.78" disallow="tram rail_urban rail rail_electric rail_fast ship" oneway="0"/>
    <type id="highway.motorway" priority="14" numLanes="2" speed="39.44" allow="private emergency authority army vip passenger hov taxi bus coach delivery truck trailer motorcycle evehicle custom1 custom2" oneway="1"/>
    <type id="highway.motorway_link" priority="9" numLanes="1" speed="22.22" allow="private emergency authority army vip passenger hov taxi bus coach delivery truck trailer motorcycle evehicle custom1 custom2" oneway="1"/>
    <type id="highway.path" priority="1" numLanes="1" speed="2.78" allow="pedestrian bicycle" oneway="1" width="2.00"/>
    <type id="highway.pedestrian" priority="1" numLanes="1" speed="2.78" allow="pedestrian" oneway="1" width="2.00"/>
    <type id="highway.primary" priority="12" numLanes="2" speed="27.78" disallow="tram rail_urban rail rail_electric rail_fast ship" oneway="0"/>
    <type id="highway.primary_link" priority="7" numLanes="1" speed="22.22" disallow="tram rail_urban rail rail_electric rail_fast ship" oneway="0"/>
    <type id="highway.raceway" priority="15" numLanes="2" speed="83.33" allow="vip" oneway="0"/>
    <type id="highway.residential" priority="3" numLanes="1" speed="13.89" disallow="tram rail_urban rail rail_electric rail_fast ship" oneway="0"/>
    <type id="highway.secondary" priority="11" numLanes="1" speed="27.78" disallow="tram rail_urban rail rail_electric rail_fast ship" oneway="0"/>
    <type id="highway.secondary_link" priority="6" numLanes="1" speed="22.22" disallow="tram rail_urban rail rail_electric rail_fast ship" oneway="0"/>
    <type id="highway.service" priority="1" numLanes="1" speed="5.56" allow="pedestrian delivery bicycle" oneway="0"/>
    <type id="highway.stairs" priority="1" numLanes="1" speed="1.39" allow="pedestrian" oneway="1" width="2.00"/>
    <type id="highway.step" priority="1" numLanes="1" speed="1.39" allow="pedestrian" oneway="1" width="2.00"/>
    <type id="highway.steps" priority="1" numLanes="1" speed="1.39" allow="pedestrian" oneway="1" width="2.00"/>
    <type id="highway.tertiary" priority="10" numLanes="1" speed="22.22" disallow="tram rail_urban rail rail_electric rail_fast ship" oneway="0"/>
    <type id="highway.tertiary_link" priority="5" numLanes="1" speed="22.22" disallow="tram rail_urban rail rail_electric rail_fast ship" oneway="0"/>
    <type id="highway.track" priority="1" numLanes="1" speed="5.56" disallow="tram rail_urban rail rail_electric rail_fast ship" oneway="0"/>
    <type id="highway.trunk" priority="13" numLanes="2" speed="27.78" disallow="pedestrian bicycle tram rail_urban rail rail_electric rail_fast ship" oneway="0"/>
    <type id="highway.trunk_link" priority="8" numLanes="1" speed="22.22" disallow="pedestrian bicycle tram rail_urban rail rail_electric rail_fast ship" oneway="0"/>
    <type id="highway.unclassified" priority="4" numLanes="1" speed="13.89" disallow="tram rail_urban rail rail_electric rail_fast ship" oneway="0"/>
    <type id="highway.unsurfaced" priority="1" numLanes="1" speed="8.33" disallow="tram rail_urban rail rail_electric rail_fast ship" oneway="0"/>
    <type id="railway.highspeed" priority="21" numLanes="1" speed="69.44" allow="rail_fast" oneway="1"/>
    <type id="railway.light_rail" priority="19" numLanes="1" speed="27.78" allow="rail_urban" oneway="1"/>
    <type id="railway.preserved" priority="16" numLanes="1" speed="27.78" allow="rail" oneway="1"/>
    <type id="railway.rail" priority="20" numLanes="1" speed="44.44" allow="rail" oneway="1"/>
    <type id="railway.subway" priority="18" numLanes="1" speed="27.78" allow="rail_urban" oneway="1"/>
    <type id="railway.tram" priority="17" numLanes="1" speed="13.89" allow="tram" oneway="1"/>

    <edge id=":1553949743_0" function="internal">
        <lane id=":1553949743_0_0" index="0" disallow="tram rail_urban rail rail_electric rail_fast ship" speed="6.08" length="7.50" shape="2046.61,2712.58 2046.15,2710.59 2046.41,2708.90 2047.41,2707.52 2049.15,2706.44"/>
    </edge>
    <edge id=":1553949743_1" function="internal">
        <lane id=":1553949743_1_0" index="0" disallow="tram rail_urban rail rail_electric rail_fast ship" speed="3.65" length="4.67" shape="2046.61,2712.58 2046.92,2711.17 2047.52,2710.51 2048.41,2710.59 2049.60,2711.41"/>
    </edge>
    <edge id=":1553949743_2" function="internal">
        <lane id=":1553949743_2_0" index="0" disallow="tram rail_urban rail rail_electric rail_fast ship" speed="3.91" length="2.50" shape="2050.44,2709.37 2049.86,2709.73 2049.53,2710.19 2049.44,2710.75 2049.60,2711.41"/>
    </edge>
    <edge id=":1553949743_3" function="internal">
        <lane id=":1553949743_3_0" index="0" disallow="tram rail_urban rail rail_electric rail_fast ship" speed="3.65" length="4.67" shape="2050.44,2709.37 2049.02,2709.12 2048.33,2708.55 2048.38,2707.66 2049.15,2706.44"/>
    </edge>
    <edge id=":4486134560_0" function="internal">
        <lane id=":4486134560_0_0" index="0" disallow="tram rail_urban rail rail_electric rail_fast ship" speed="9.05" length="9.50" shape="2209.99,2695.43 2208.88,2692.62 2207.59,2690.46 2206.14,2688.93 2204.51,2688.05"/>
    </edge>
    <edge id=":4486134560_1" function="internal">
        <lane id=":4486134560_1_0" index="0" disallow="tram rail_urban rail rail_electric rail_fast ship" speed="7.57" length="4.46" shape="2209.99,2695.43 2209.44,2691.75 2209.70,2691.05"/>
    </edge>
    <edge id=":4486134560_2" function="internal">
        <lane id=":4486134560_2_0" index="0" disallow="tram rail_urban rail rail_electric rail_fast ship" speed="3.68" length="1.91" shape="2209.99,2695.43 2210.68,2694.12 2211.04,2693.89"/>
    </edge>
    <edge id=":4486134560_9" function="internal">
        <lane id=":4486134560_9_0" index="0" disallow="tram rail_urban rail rail_electric rail_fast ship" speed="7.57" length="9.90" shape="2209.70,2691.05 2210.48,2688.94 2213.12,2686.98 2217.35,2685.89"/>
    </edge>
    <edge id=":4486134560_10" function="internal">
        <lane id=":4486134560_10_0" index="0" disallow="tram rail_urban rail rail_electric rail_fast ship" speed="3.68" length="2.88" shape="2211.04,2693.89 2211.45,2693.63 2212.31,2693.96 2213.25,2695.10"/>
    </edge>
    <edge id=":4486134560_3" function="internal">
        <lane id=":4486134560_3_0" index="0" disallow="tram rail_urban rail rail_electric rail_fast ship" speed="6.13" length="9.00" shape="2217.77,2689.06 2215.15,2689.75 2213.52,2690.98 2212.89,2692.77 2213.25,2695.10"/>
    </edge>
    <edge id=":4486134560_4" function="internal">
        <lane id=":4486134560_4_0" index="0" disallow="tram rail_urban rail rail_electric rail_fast ship" speed="9.72" length="13.43" shape="2217.77,2689.06 2214.28,2689.40 2211.06,2689.39 2207.89,2688.96 2204.51,2688.05"/>
    </edge>
    <edge id=":4486134560_5" function="internal">
        <lane id=":4486134560_5_0" index="0" disallow="tram rail_urban rail rail_electric rail_fast ship" speed="3.65" length="4.67" shape="2217.77,2689.06 2216.48,2688.42 2215.98,2687.68 2216.27,2686.84 2217.35,2685.89"/>
    </edge>
    <edge id=":4486134560_6" function="internal">
        <lane id=":4486134560_6_0" index="0" disallow="tram rail_urban rail rail_electric rail_fast ship" speed="9.72" length="12.01" shape="2205.51,2685.01 2208.67,2685.90 2211.35,2686.28 2214.08,2686.25 2217.35,2685.89"/>
    </edge>
    <edge id=":4486134560_7" function="internal">
        <lane id=":4486134560_7_0" index="0" disallow="tram rail_urban rail rail_electric rail_fast ship" speed="10.57" length="13.15" shape="2205.51,2685.01 2207.86,2686.25 2209.93,2688.35 2211.72,2691.30 2213.25,2695.10"/>
    </edge>
    <edge id=":4486134560_8" function="internal">
        <lane id=":4486134560_8_0" index="0" disallow="tram rail_urban rail rail_electric rail_fast ship" speed="3.65" length="2.61" shape="2205.51,2685.01 2206.40,2686.14 2206.53,2687.03 2206.34,2687.22"/>
    </edge>
    <edge id=":4486134560_11" function="internal">
        <lane id=":4486134560_11_0" index="0" disallow="tram rail_urban rail rail_electric rail_fast ship" speed="3.65" length="2.07" shape="2206.34,2687.22 2205.90,2687.66 2204.51,2688.05"/>
    </edge>
    <edge id=":5130233478_0" function="internal">
        <lane id=":5130233478_0_0" index="0" disallow="tram rail_urban rail rail_electric rail_fast ship" speed="6.08" length="7.60" shape="2131.23,2974.64 2129.20,2975.07 2127.50,2974.75 2126.14,2973.68 2125.13,2971.87"/>
    </edge>
    <edge id=":5130233478_1" function="internal">
        <lane id=":5130233478_1_0" index="0" disallow="tram rail_urban rail rail_electric rail_fast ship" speed="3.65" length="4.67" shape="2131.23,2974.64 2129.83,2974.30 2129.18,2973.68 2129.29,2972.79 2130.14,2971.63"/>
    </edge>
    <edge id=":5130233478_2" function="internal">
        <lane id=":5130233478_2_0" index="0" disallow="tram rail_urban rail rail_electric rail_fast ship" speed="3.91" length="2.53" shape="2128.11,2970.71 2128.45,2971.31 2128.90,2971.67 2129.46,2971.77 2130.14,2971.63"/>
    </edge>
    <edge id=":5130233478_3" function="internal">
        <lane id=":5130233478_3_0" index="0" disallow="tram rail_urban rail rail_electric rail_fast ship" speed="3.65" length="4.67" shape="2128.11,2970.71 2127.80,2972.12 2127.20,2972.78 2126.31,2972.70 2125.13,2971.87"/>
    </edge>
    <edge id=":5130333344_0" function="internal">
        <lane id=":5130333344_0_0" index="0" disallow="tram rail_urban rail rail_electric rail_fast ship" speed="6.07" length="8.41" shape="2289.80,2923.65 2290.44,2925.90 2290.17,2927.74 2288.97,2929.17 2286.86,2930.19"/>
    </edge>
    <edge id=":5130333344_1" function="internal">
        <lane id=":5130333344_1_0" index="0" disallow="tram rail_urban rail rail_electric rail_fast ship" speed="3.65" length="2.63" shape="2289.80,2923.65 2289.56,2925.07 2288.99,2925.76 2288.71,2925.75"/>
    </edge>
    <edge id=":5130333344_4" function="internal">
        <lane id=":5130333344_4_0" index="0" disallow="tram rail_urban rail rail_electric rail_fast ship" speed="3.65" length="2.05" shape="2288.71,2925.75 2288.10,2925.72 2286.88,2924.95"/>
    </edge>
    <edge id=":5130333344_2" function="internal">
        <lane id=":5130333344_2_0" index="0" disallow="tram rail_urban rail rail_electric rail_fast ship" speed="3.90" length="2.80" shape="2285.90,2927.13 2286.60,2926.79 2287.00,2926.32 2287.09,2925.70 2286.88,2924.95"/>
    </edge>
    <edge id=":5130333344_3" function="internal">
        <lane id=":5130333344_3_0" index="0" disallow="tram rail_urban rail rail_electric rail_fast ship" speed="3.65" length="2.08" shape="2285.90,2927.13 2287.29,2927.54 2287.73,2927.99"/>
    </edge>
    <edge id=":5130333344_5" function="internal">
        <lane id=":5130333344_5_0" index="0" disallow="tram rail_urban rail rail_electric rail_fast ship" speed="3.65" length="2.59" shape="2287.73,2927.99 2287.91,2928.18 2287.77,2929.06 2286.86,2930.19"/>
    </edge>
    <edge id=":6584935018_0" function="internal">
        <lane id=":6584935018_0_0" index="0" disallow="tram rail_urban rail rail_electric rail_fast ship" speed="13.89" length="14.54" shape="2249.44,2941.41 2235.46,2945.39"/>
    </edge>
    <edge id=":6584935018_1" function="internal">
        <lane id=":6584935018_1_0" index="0" speed="8.37" length="5.86" shape="2249.44,2941.41 2245.73,2941.92 2243.69,2941.38"/>
    </edge>
    <edge id=":6584935018_2" function="internal">
        <lane id=":6584935018_2_0" index="0" disallow="tram rail_urban rail rail_electric rail_fast ship" speed="3.65" length="2.34" shape="2249.44,2941.41 2248.06,2940.98 2247.45,2940.33"/>
    </edge>
    <edge id=":6584935018_8" function="internal">
        <lane id=":6584935018_8_0" index="0" speed="8.37" length="8.56" shape="2243.69,2941.38 2242.59,2941.09 2240.01,2938.91 2238.01,2935.39"/>
    </edge>
    <edge id=":6584935018_9" function="internal">
        <lane id=":6584935018_9_0" index="0" disallow="tram rail_urban rail rail_electric rail_fast ship" speed="3.65" length="2.34" shape="2247.45,2940.33 2247.61,2939.45 2248.53,2938.34"/>
    </edge>
    <edge id=":6584935018_3" function="internal">
        <lane id=":6584935018_3_0" index="0" disallow="tram rail_urban rail rail_electric rail_fast ship" speed="6.95" length="9.63" shape="2240.97,2934.18 2242.32,2936.58 2244.03,2938.07 2246.10,2938.66 2248.53,2938.34"/>
    </edge>
    <edge id=":6584935018_4" function="internal">
        <lane id=":6584935018_4_0" index="0" disallow="tram rail_urban rail rail_electric rail_fast ship" speed="7.80" length="14.68" shape="2240.97,2934.18 2241.97,2938.15 2241.38,2941.34 2239.21,2943.75 2235.46,2945.39"/>
    </edge>
    <edge id=":6584935018_5" function="internal">
        <lane id=":6584935018_5_0" index="0" speed="6.26" length="9.05" shape="2234.61,2942.30 2236.93,2941.29 2238.26,2939.81 2238.62,2937.84 2238.01,2935.39"/>
    </edge>
    <edge id=":6584935018_6" function="internal">
        <lane id=":6584935018_6_0" index="0" disallow="tram rail_urban rail rail_electric rail_fast ship" speed="13.89" length="14.47" shape="2234.61,2942.30 2248.53,2938.34"/>
    </edge>
    <edge id=":6584935018_7" function="internal">
        <lane id=":6584935018_7_0" index="0" disallow="tram rail_urban rail rail_electric rail_fast ship" speed="3.65" length="2.34" shape="2234.61,2942.30 2235.98,2942.75 2236.58,2943.42"/>
    </edge>
    <edge id=":6584935018_10" function="internal">
        <lane id=":6584935018_10_0" index="0" disallow="tram rail_urban rail rail_electric rail_fast ship" speed="3.65" length="2.34" shape="2236.58,2943.42 2236.40,2944.30 2235.46,2945.39"/>
    </edge>
    <edge id=":6584935028_0" function="internal">
        <lane id=":6584935028_0_0" index="0" disallow="tram rail_urban rail rail_electric rail_fast ship" speed="6.89" length="9.35" shape="2253.42,2849.53 2252.12,2847.46 2250.40,2846.22 2248.26,2845.82 2245.69,2846.25"/>
    </edge>
    <edge id=":6584935028_1" function="internal">
        <lane id=":6584935028_1_0" index="0" disallow="tram rail_urban rail rail_electric rail_fast ship" speed="13.89" length="14.24" shape="2253.42,2849.53 2248.40,2836.21"/>
    </edge>
    <edge id=":6584935028_2" function="internal">
        <lane id=":6584935028_2_0" index="0" disallow="tram rail_urban rail rail_electric rail_fast ship" speed="3.65" length="2.34" shape="2253.42,2849.53 2253.67,2848.11 2254.25,2847.42"/>
    </edge>
    <edge id=":6584935028_9" function="internal">
        <lane id=":6584935028_9_0" index="0" disallow="tram rail_urban rail rail_electric rail_fast ship" speed="3.65" length="2.34" shape="2254.25,2847.42 2255.14,2847.47 2256.35,2848.25"/>
    </edge>
    <edge id=":6584935028_3" function="internal">
        <lane id=":6584935028_3_0" index="0" disallow="tram rail_urban rail rail_electric rail_fast ship" speed="13.89" length="13.92" shape="2251.45,2835.22 2256.35,2848.25"/>
    </edge>
    <edge id=":6584935028_4" function="internal">
        <lane id=":6584935028_4_0" index="0" disallow="tram rail_urban rail rail_electric rail_fast ship" speed="7.82" length="5.99" shape="2251.45,2835.22 2252.37,2839.00 2251.94,2841.05"/>
    </edge>
    <edge id=":6584935028_5" function="internal">
        <lane id=":6584935028_5_0" index="0" disallow="tram rail_urban rail rail_electric rail_fast ship" speed="3.65" length="2.34" shape="2251.45,2835.22 2251.06,2836.62 2250.42,2837.24"/>
    </edge>
    <edge id=":6584935028_10" function="internal">
        <lane id=":6584935028_10_0" index="0" disallow="tram rail_urban rail rail_electric rail_fast ship" speed="7.82" length="8.53" shape="2251.94,2841.05 2251.71,2842.10 2249.49,2844.52 2245.69,2846.25"/>
    </edge>
    <edge id=":6584935028_11" function="internal">
        <lane id=":6584935028_11_0" index="0" disallow="tram rail_urban rail rail_electric rail_fast ship" speed="3.65" length="2.34" shape="2250.42,2837.24 2249.53,2837.11 2248.40,2836.21"/>
    </edge>
    <edge id=":6584935028_6" function="internal">
        <lane id=":6584935028_6_0" index="0" disallow="tram rail_urban rail rail_electric rail_fast ship" speed="6.36" length="9.19" shape="2244.75,2843.19 2247.16,2842.09 2248.57,2840.56 2248.98,2838.60 2248.40,2836.21"/>
    </edge>
    <edge id=":6584935028_7" function="internal">
        <lane id=":6584935028_7_0" index="0" disallow="tram rail_urban rail rail_electric rail_fast ship" speed="8.33" length="14.09" shape="2244.75,2843.19 2248.59,2842.56 2251.80,2843.19 2254.39,2845.09 2256.35,2848.25"/>
    </edge>
    <edge id=":6584935028_8" function="internal">
        <lane id=":6584935028_8_0" index="0" disallow="tram rail_urban rail rail_electric rail_fast ship" speed="3.65" length="4.67" shape="2244.75,2843.19 2246.13,2843.61 2246.75,2844.26 2246.60,2845.14 2245.69,2846.25"/>
    </edge>
    <edge id=":6584935029_0" function="internal">
        <lane id=":6584935029_0_0" index="0" speed="13.89" length="15.64" shape="2193.05,2869.97 2190.43,2867.15 2187.79,2864.18 2185.24,2861.14 2182.90,2858.09"/>
    </edge>
    <edge id=":6584935029_1" function="internal">
        <lane id=":6584935029_1_0" index="0" disallow="tram rail_urban rail rail_electric rail_fast ship" speed="7.44" length="16.40" shape="2193.05,2869.97 2190.21,2866.02 2189.79,2862.71 2191.78,2860.04 2196.20,2858.00"/>
    </edge>
    <edge id=":6584935029_2" function="internal">
        <lane id=":6584935029_2_0" index="0" speed="5.74" length="9.18" shape="2197.14,2861.06 2194.66,2862.20 2193.54,2863.70 2193.78,2865.55 2195.37,2867.76"/>
    </edge>
    <edge id=":6584935029_3" function="internal">
        <lane id=":6584935029_3_0" index="0" speed="9.61" length="15.57" shape="2197.14,2861.06 2192.55,2862.01 2188.64,2861.82 2185.43,2860.52 2182.90,2858.09"/>
    </edge>
    <edge id=":6584935029_4" function="internal">
        <lane id=":6584935029_4_0" index="0" disallow="tram rail_urban rail rail_electric rail_fast ship" speed="3.65" length="4.67" shape="2197.14,2861.06 2195.75,2860.65 2195.14,2860.00 2195.29,2859.12 2196.20,2858.00"/>
    </edge>
    <edge id=":6584935029_5" function="internal">
        <lane id=":6584935029_5_0" index="0" disallow="tram rail_urban rail rail_electric rail_fast ship" speed="8.36" length="11.60" shape="2185.48,2856.20 2187.29,2857.87 2189.68,2858.72 2192.65,2858.77 2196.20,2858.00"/>
    </edge>
    <edge id=":6584935029_6" function="internal">
        <lane id=":6584935029_6_0" index="0" speed="13.89" length="15.23" shape="2185.48,2856.20 2187.79,2859.20 2190.24,2862.14 2192.79,2864.99 2195.37,2867.76"/>
    </edge>
    <edge id=":6584935051_0" function="internal">
        <lane id=":6584935051_0_0" index="0" disallow="tram rail_urban rail rail_electric rail_fast ship" speed="13.89" length="14.90" shape="2236.83,2808.22 2235.57,2804.70 2234.48,2801.13 2233.27,2797.62 2231.66,2794.27"/>
    </edge>
    <edge id=":6584935051_1" function="internal">
        <lane id=":6584935051_1_0" index="0" disallow="tram rail_urban rail rail_electric rail_fast ship" speed="7.96" length="6.79" shape="2236.83,2808.22 2235.86,2804.40 2236.32,2801.59"/>
    </edge>
    <edge id=":6584935051_2" function="internal">
        <lane id=":6584935051_2_0" index="0" disallow="tram rail_urban rail rail_electric rail_fast ship" speed="3.65" length="2.34" shape="2236.83,2808.22 2237.11,2806.81 2237.69,2806.13"/>
    </edge>
    <edge id=":6584935051_9" function="internal">
        <lane id=":6584935051_9_0" index="0" disallow="tram rail_urban rail rail_electric rail_fast ship" speed="7.96" length="7.63" shape="2236.32,2801.59 2236.38,2801.21 2238.40,2798.67 2241.91,2796.76"/>
    </edge>
    <edge id=":6584935051_10" function="internal">
        <lane id=":6584935051_10_0" index="0" disallow="tram rail_urban rail rail_electric rail_fast ship" speed="3.65" length="2.34" shape="2237.69,2806.13 2238.59,2806.20 2239.78,2807.00"/>
    </edge>
    <edge id=":6584935051_3" function="internal">
        <lane id=":6584935051_3_0" index="0" disallow="tram rail_urban rail rail_electric rail_fast ship" speed="6.46" length="9.12" shape="2243.03,2799.76 2240.80,2800.97 2239.51,2802.58 2239.18,2804.59 2239.78,2807.00"/>
    </edge>
    <edge id=":6584935051_4" function="internal">
        <lane id=":6584935051_4_0" index="0" disallow="tram rail_urban rail rail_electric rail_fast ship" speed="8.46" length="13.86" shape="2243.03,2799.76 2239.81,2800.35 2236.84,2799.63 2234.13,2797.61 2231.66,2794.27"/>
    </edge>
    <edge id=":6584935051_5" function="internal">
        <lane id=":6584935051_5_0" index="0" disallow="tram rail_urban rail rail_electric rail_fast ship" speed="3.65" length="4.67" shape="2243.03,2799.76 2241.63,2799.43 2240.97,2798.82 2241.07,2797.93 2241.91,2796.76"/>
    </edge>
    <edge id=":6584935051_6" function="internal">
        <lane id=":6584935051_6_0" index="0" disallow="tram rail_urban rail rail_electric rail_fast ship" speed="6.81" length="8.66" shape="2234.82,2793.33 2236.36,2795.41 2238.05,2796.68 2239.91,2797.13 2241.91,2796.76"/>
    </edge>
    <edge id=":6584935051_7" function="internal">
        <lane id=":6584935051_7_0" index="0" disallow="tram rail_urban rail rail_electric rail_fast ship" speed="13.89" length="14.57" shape="2234.82,2793.33 2236.39,2796.63 2237.53,2800.05 2238.56,2803.52 2239.78,2807.00"/>
    </edge>
    <edge id=":6584935051_8" function="internal">
        <lane id=":6584935051_8_0" index="0" disallow="tram rail_urban rail rail_electric rail_fast ship" speed="3.69" length="2.17" shape="2234.82,2793.33 2234.38,2794.75 2233.89,2795.21"/>
    </edge>
    <edge id=":6584935051_11" function="internal">
        <lane id=":6584935051_11_0" index="0" disallow="tram rail_urban rail rail_electric rail_fast ship" speed="3.69" length="2.65" shape="2233.89,2795.21 2233.71,2795.38 2232.81,2795.22 2231.66,2794.27"/>
    </edge>
    <edge id=":6584935052_0" function="internal">
        <lane id=":6584935052_0_0" index="0" disallow="tram rail_urban rail rail_electric rail_fast ship" speed="6.07" length="8.01" shape="2283.18,2779.45 2283.75,2781.59 2283.49,2783.37 2282.38,2784.78 2280.44,2785.84"/>
    </edge>
    <edge id=":6584935052_1" function="internal">
        <lane id=":6584935052_1_0" index="0" disallow="tram rail_urban rail rail_electric rail_fast ship" speed="3.65" length="4.67" shape="2283.18,2779.45 2282.92,2780.87 2282.34,2781.55 2281.45,2781.50 2280.24,2780.71"/>
    </edge>
    <edge id=":6584935052_2" function="internal">
        <lane id=":6584935052_2_0" index="0" disallow="tram rail_urban rail rail_electric rail_fast ship" speed="3.90" length="2.67" shape="2279.33,2782.84 2279.97,2782.49 2280.34,2782.02 2280.43,2781.42 2280.24,2780.71"/>
    </edge>
    <edge id=":6584935052_3" function="internal">
        <lane id=":6584935052_3_0" index="0" disallow="tram rail_urban rail rail_electric rail_fast ship" speed="3.65" length="4.67" shape="2279.33,2782.84 2280.73,2783.17 2281.38,2783.78 2281.29,2784.67 2280.44,2785.84"/>
    </edge>
    <edge id=":gneJ3_0" function="internal">
        <lane id=":gneJ3_0_0" index="0" speed="3.97" length="1.90" shape="2156.50,2821.95 2156.16,2821.58 2155.76,2821.36 2155.32,2821.28 2154.82,2821.34"/>
    </edge>
    <edge id=":gneJ3_1" function="internal">
        <lane id=":gneJ3_1_0" index="0" speed="6.20" length="5.71" shape="2154.05,2818.23 2155.54,2818.06 2156.88,2818.30 2158.06,2818.97 2159.09,2820.06"/>
    </edge>
    <edge id=":gneJ4_0" function="internal">
        <lane id=":gneJ4_0_0" index="0" speed="13.89" length="0.60" shape="2225.05,2903.81 2224.98,2903.64 2224.92,2903.54 2224.85,2903.44 2224.73,2903.31"/>
    </edge>
    <edge id=":gneJ4_1" function="internal">
        <lane id=":gneJ4_1_0" index="0" speed="9.74" length="1.79" shape="2227.05,2901.11 2227.41,2901.50 2227.63,2901.78 2227.80,2902.11 2228.01,2902.59"/>
    </edge>

    <edge id="-210617558#1" from="5130233478" to="1553949743" priority="10" type="highway.tertiary" shape="2127.75,2974.20 2110.79,2930.70 2094.78,2877.54 2077.30,2805.85 2063.08,2750.35 2046.99,2709.14">
        <lane id="-210617558#1_0" index="0" disallow="tram rail_urban rail rail_electric rail_fast ship" speed="22.22" length="271.34" shape="2125.13,2971.87 2109.28,2931.22 2093.24,2877.96 2075.75,2806.24 2061.55,2750.84 2046.61,2712.58"/>
    </edge>
    <edge id="-451798708#3" from="4486134560" to="6584935052" priority="1" type="highway.track" shape="2210.66,2688.39 2220.14,2687.13 2226.65,2685.55 2240.37,2694.16 2246.11,2696.78 2283.03,2783.17">
        <lane id="-451798708#3_0" index="0" disallow="tram rail_urban rail rail_electric rail_fast ship" speed="5.56" length="124.61" shape="2217.35,2685.89 2219.85,2685.56 2226.93,2683.84 2241.13,2692.75 2247.34,2695.58 2283.18,2779.45"/>
    </edge>
    <edge id="-527775824" from="4486134560" to="1553949743" priority="4" type="highway.unclassified" shape="2210.66,2688.39 2193.58,2682.76 2162.32,2670.02 2143.41,2669.07 2112.94,2680.09 2046.99,2709.14">
        <lane id="-527775824_0" index="0" disallow="tram rail_urban rail rail_electric rail_fast ship" speed="13.89" length="164.94" shape="2204.51,2688.05 2193.03,2684.26 2161.97,2671.60 2143.65,2670.68 2113.54,2681.58 2050.44,2709.37"/>
    </edge>
    <edge id="-527775826#0" from="6584935018" to="5130233478" priority="4" type="highway.unclassified" shape="2242.38,2941.83 2223.56,2946.99 2203.17,2949.84 2180.70,2955.04 2127.75,2974.20">
        <lane id="-527775826#0_0" index="0" disallow="tram rail_urban rail rail_electric rail_fast ship" speed="13.89" length="108.61" shape="2235.46,2945.39 2223.88,2948.56 2203.46,2951.41 2181.15,2956.58 2131.23,2974.64"/>
    </edge>
    <edge id="-527775826#1" from="5130333344" to="6584935018" priority="4" type="highway.unclassified" shape="2289.81,2927.58 2272.56,2933.01 2267.92,2934.26 2242.38,2941.83">
        <lane id="-527775826#1_0" index="0" disallow="tram rail_urban rail rail_electric rail_fast ship" speed="13.89" length="39.07" shape="2286.86,2930.19 2273.01,2934.55 2268.36,2935.80 2249.44,2941.41"/>
    </edge>
    <edge id="-527775828#2" from="6584935028" to="5130333344" priority="4" type="highway.unclassified" shape="2252.15,2842.61 2266.38,2875.26 2289.81,2927.58">
        <lane id="-527775828#2_0" index="0" disallow="tram rail_urban rail rail_electric rail_fast ship" speed="13.89" length="82.48" shape="2256.35,2848.25 2267.84,2874.61 2289.80,2923.65"/>
    </edge>
    <edge id="-527775828#3" from="6584935051" to="6584935028" priority="4" type="highway.unclassified" shape="2235.51,2800.85 2249.99,2835.87 2252.15,2842.61">
        <lane id="-527775828#3_0" index="0" disallow="tram rail_urban rail rail_electric rail_fast ship" speed="13.89" length="30.54" shape="2239.78,2807.00 2251.45,2835.22"/>
    </edge>
    <edge id="-527775828#4" from="4486134560" to="6584935051" priority="4" type="highway.unclassified" shape="2210.66,2688.39 2211.22,2694.05 2214.47,2703.97 2214.43,2713.66 2201.62,2742.07 2210.14,2754.43 2233.61,2794.43 2235.51,2800.85">
        <lane id="-527775828#4_0" index="0" disallow="tram rail_urban rail rail_electric rail_fast ship" speed="13.89" length="110.23" shape="2213.25,2695.10 2216.07,2703.72 2216.03,2714.01 2203.45,2741.90 2211.49,2753.57 2234.82,2793.33"/>
    </edge>
    <edge id="-701166835" from="6584935029" to="6584935028" priority="3" type="highway.residential">
        <lane id="-701166835_0" index="0" disallow="tram rail_urban rail rail_electric rail_fast ship" speed="13.89" length="50.76" shape="2196.20,2858.00 2244.75,2843.19"/>
    </edge>
    <edge id="-701166839" from="6584935052" to="6584935051" priority="3" type="highway.residential">
        <lane id="-701166839_0" index="0" disallow="tram rail_urban rail rail_electric rail_fast ship" speed="13.89" length="39.92" shape="2280.44,2785.84 2243.03,2799.76"/>
    </edge>
    <edge id="-gneE3" from="gneJ3" to="gneJ2" priority="-1">