<?xml version="1.0" encoding="UTF-8"?>

<!-- generated on Wed 11 Mar 2020 03:03:05 PM WITA by Eclipse SUMO netedit Version 1.4.0
<configuration xmlns:xsi="http://www.w3.org/2001/XMLSchema-instance" xsi:noNamespaceSchemaLocation="http://sumo.dlr.de/xsd/netconvertConfiguration.xsd">

    <input>
        <sumo-net-file value="sebudi_edit2.net.xml"/>
    </input>

    <output>
        <output-file value="sebudi_edit2.net.xml"/>
    </output>

    <processing>
        <geometry.min-radius.fix.railways value="false"/>
        <geometry.max-grade.fix value="false"/>
        <offset.disable-normalization value="true"/>
        <lefthand value="false"/>
    </processing>

    <junctions>
        <no-turnarounds value="true"/>
        <junctions.corner-detail value="5"/>
        <junctions.limit-turn-speed value="5.5"/>
        <rectangular-lane-cut value="false"/>
    </junctions>

    <pedestrian>
        <walkingareas value="false"/>
    </pedestrian>

    <report>
        <aggregate-warnings value="5"/>
    </report>

</configuration>
-->

<net version="1.3" junctionCornerDetail="5" limitTurnSpeed="5.50" xmlns:xsi="http://www.w3.org/2001/XMLSchema-instance" xsi:noNamespaceSchemaLocation="http://sumo.dlr.de/xsd/net_file.xsd">

    <location netOffset="-329165.89,930795.17" convBoundary="18.57,0.00,3234.80,4455.53" origBoundary="115.448347,-8.417527,115.477864,-8.377353" projParameter="+proj=utm +zone=50 +ellps=WGS84 +datum=WGS84 +units=m +no_defs"/>

    <type id="highway.bridleway" priority="1" numLanes="1" speed="2.78" allow="pedestrian" oneway="1" width="2.00"/>
    <type id="highway.bus_guideway" priority="1" numLanes="1" speed="27.78" allow="bus" oneway="1"/>
    <type id="highway.cycleway" priority="1" numLanes="1" speed="8.33" allow="bicycle" oneway="0" width="1.00"/>
    <type id="highway.footway" priority="1" numLanes="1" speed="2.78" allow="pedestrian" oneway="1" width="2.00"/>
    <type id="highway.ford" priority="1" numLanes="1" speed="2.78" allow="army" oneway="0"/>
    <type id="highway.living_street" priority="2" numLanes="1" speed="2.78" disallow="tram rail_urban rail rail_electric rail_fast ship" oneway="0"/>
    <type id="highway.motorway" priority="14" numLanes="2" speed="39.44" allow="private emergency authority army vip passenger hov taxi bus coach delivery truck trailer motorcycle evehicle custom1 custom2" oneway="1"/>
    <type id="highway.motorway_link" priority="9" numLanes="1" speed="22.22" allow="private emergency authority army vip passenger hov taxi bus coach delivery truck trailer motorcycle evehicle custom1 custom2" oneway="1"/>
    <type id="highway.path" priority="1" numLanes="1" speed="2.78" allow="pedestrian bicycle" oneway="1" width="2.00"/>
    <type id="highway.pedestrian" priority="1" numLanes="1" speed="2.78" allow="pedestrian" oneway="1" width="2.00"/>
    <type id="highway.primary" priority="12" numLanes="2" speed="27.78" disallow="tram rail_urban rail rail_electric rail_fast ship" oneway="0"/>
    <type id="highway.primary_link" priority="7" numLanes="1" speed="22.22" disallow="tram rail_urban rail rail_electric rail_fast ship" oneway="0"/>
    <type id="highway.raceway" priority="15" numLanes="2" speed="83.33" allow="vip" oneway="0"/>
    <type id="highway.residential" priority="3" numLanes="1" speed="13.89" disallow="tram rail_urban rail rail_electric rail_fast ship" oneway="0"/>
    <type id="highway.secondary" priority="11" numLanes="1" speed="27.78" disallow="tram rail_urban rail rail_electric rail_fast ship" oneway="0"/>
    <type id="highway.secondary_link" priority="6" numLanes="1" speed="22.22" disallow="tram rail_urban rail rail_electric rail_fast ship" oneway="0"/>
    <type id="highway.service" priority="1" numLanes="1" speed="5.56" allow="pedestrian delivery bicycle" oneway="0"/>
    <type id="highway.stairs" priority="1" numLanes="1" speed="1.39" allow="pedestrian" oneway="1" width="2.00"/>
    <type id="highway.step" priority="1" numLanes="1" speed="1.39" allow="pedestrian" oneway="1" width="2.00"/>
    <type id="highway.steps" priority="1" numLanes="1" speed="1.39" allow="pedestrian" oneway="1" width="2.00"/>
    <type id="highway.tertiary" priority="10" numLanes="1" speed="22.22" disallow="tram rail_urban rail rail_electric rail_fast ship" oneway="0"/>
    <type id="highway.tertiary_link" priority="5" numLanes="1" speed="22.22" disallow="tram rail_urban rail rail_electric rail_fast ship" oneway="0"/>
    <type id="highway.track" priority="1" numLanes="1" speed="5.56" disallow="tram rail_urban rail rail_electric rail_fast ship" oneway="0"/>
    <type id="highway.trunk" priority="13" numLanes="2" speed="27.78" disallow="pedestrian bicycle tram rail_urban rail rail_electric rail_fast ship" oneway="0"/>
    <type id="highway.trunk_link" priority="8" numLanes="1" speed="22.22" disallow="pedestrian bicycle tram rail_urban rail rail_electric rail_fast ship" oneway="0"/>
    <type id="highway.unclassified" priority="4" numLanes="1" speed="13.89" disallow="tram rail_urban rail rail_electric rail_fast ship" oneway="0"/>
    <type id="highway.unsurfaced" priority="1" numLanes="1" speed="8.33" disallow="tram rail_urban rail rail_electric rail_fast ship" oneway="0"/>
    <type id="railway.highspeed" priority="21" numLanes="1" speed="69.44" allow="rail_fast" oneway="1"/>
    <type id="railway.light_rail" priority="19" numLanes="1" speed="27.78" allow="rail_urban" oneway="1"/>
    <type id="railway.preserved" priority="16" numLanes="1" speed="27.78" allow="rail" oneway="1"/>
    <type id="railway.rail" priority="20" numLanes="1" speed="44.44" allow="rail" oneway="1"/>
    <type id="railway.subway" priority="18" numLanes="1" speed="27.78" allow="rail_urban" oneway="1"/>
    <type id="railway.tram" priority="17" numLanes="1" speed="13.89" allow="tram" oneway="1"/>

    <edge id=":1553949743_0" function="internal">
        <lane id=":1553949743_0_0" index="0" disallow="tram rail_urban rail rail_electric rail_fast ship" speed="10.47" length="24.24" shape="2051.76,2725.76 2049.38,2717.85 2049.06,2711.60 2050.79,2707.00 2054.58,2704.05"/>
    </edge>
    <edge id=":1553949743_1" function="internal">
        <lane id=":1553949743_1_0" index="0" speed="6.28" length="15.32" shape="2051.76,2725.76 2051.58,2721.73 2053.76,2718.82 2057.23,2717.78 2060.95,2719.34"/>
    </edge>
    <edge id=":1553949743_2" function="internal">
        <lane id=":1553949743_2_0" index="0" disallow="tram rail_urban rail rail_electric rail_fast ship" speed="3.65" length="4.67" shape="2051.76,2725.76 2052.07,2724.35 2052.67,2723.69 2053.56,2723.77 2054.74,2724.59"/>
    </edge>
    <edge id=":1553949743_3" function="internal">
        <lane id=":1553949743_3_0" index="0" disallow="tram rail_urban rail rail_electric rail_fast ship" speed="5.58" length="11.71" shape="2058.83,2721.73 2055.60,2719.28 2053.84,2718.94 2053.55,2720.71 2054.74,2724.59"/>
    </edge>
    <edge id=":1553949743_4" function="internal">
        <lane id=":1553949743_4_0" index="0" disallow="tram rail_urban rail rail_electric rail_fast ship" speed="8.69" length="22.54" shape="2058.83,2721.73 2053.03,2715.73 2050.38,2710.79 2050.90,2706.89 2054.58,2704.05"/>
    </edge>
    <edge id=":1553949743_5" function="internal">
        <lane id=":1553949743_5_0" index="0" speed="7.36" length="15.76" shape="2055.87,2706.98 2053.96,2708.73 2054.17,2711.38 2056.50,2714.91 2060.95,2719.34"/>
    </edge>
    <edge id=":1553949743_6" function="internal">
        <lane id=":1553949743_6_0" index="0" disallow="tram rail_urban rail rail_electric rail_fast ship" speed="9.40" length="19.33" shape="2055.87,2706.98 2053.24,2709.21 2052.17,2712.89 2052.67,2718.01 2054.74,2724.59"/>
    </edge>
    <edge id=":1553949743_7" function="internal">
        <lane id=":1553949743_7_0" index="0" disallow="tram rail_urban rail rail_electric rail_fast ship" speed="3.65" length="4.67" shape="2055.87,2706.98 2054.45,2706.73 2053.76,2706.16 2053.81,2705.26 2054.58,2704.05"/>
    </edge>
    <edge id=":4486134560_0" function="internal">
        <lane id=":4486134560_0_0" index="0" disallow="tram rail_urban rail rail_electric rail_fast ship" speed="9.05" length="9.50" shape="2209.99,2695.43 2208.88,2692.62 2207.59,2690.46 2206.14,2688.93 2204.51,2688.05"/>
    </edge>
    <edge id=":4486134560_1" function="internal">
        <lane id=":4486134560_1_0" index="0" disallow="tram rail_urban rail rail_electric rail_fast ship" speed="7.57" length="4.46" shape="2209.99,2695.43 2209.44,2691.75 2209.70,2691.05"/>
    </edge>
    <edge id=":4486134560_2" function="internal">
        <lane id=":4486134560_2_0" index="0" disallow="tram rail_urban rail rail_electric rail_fast ship" speed="3.68" length="1.91" shape="2209.99,2695.43 2210.68,2694.12 2211.04,2693.89"/>
    </edge>
    <edge id=":4486134560_9" function="internal">
        <lane id=":4486134560_9_0" index="0" disallow="tram rail_urban rail rail_electric rail_fast ship" speed="7.57" length="9.90" shape="2209.70,2691.05 2210.48,2688.94 2213.12,2686.98 2217.35,2685.89"/>
    </edge>
    <edge id=":4486134560_10" function="internal">
        <lane id=":4486134560_10_0" index="0" disallow="tram rail_urban rail rail_electric rail_fast ship" speed="3.68" length="2.88" shape="2211.04,2693.89 2211.45,2693.63 2212.31,2693.96 2213.25,2695.10"/>
    </edge>
    <edge id=":4486134560_3" function="internal">
        <lane id=":4486134560_3_0" index="0" disallow="tram rail_urban rail rail_electric rail_fast ship" speed="6.13" length="9.00" shape="2217.77,2689.06 2215.15,2689.75 2213.52,2690.98 2212.89,2692.77 2213.25,2695.10"/>
    </edge>
    <edge id=":4486134560_4" function="internal">
        <lane id=":4486134560_4_0" index="0" disallow="tram rail_urban rail rail_electric rail_fast ship" speed="9.72" length="13.43" shape="2217.77,2689.06 2214.28,2689.40 2211.06,2689.39 2207.89,2688.96 2204.51,2688.05"/>
    </edge>
    <edge id=":4486134560_5" function="internal">
        <lane id=":4486134560_5_0" index="0" disallow="tram rail_urban rail rail_electric rail_fast ship" speed="3.65" length="4.67" shape="2217.77,2689.06 2216.48,2688.42 2215.98,2687.68 2216.27,2686.84 2217.35,2685.89"/>
    </edge>
    <edge id=":4486134560_6" function="internal">
        <lane id=":4486134560_6_0" index="0" disallow="tram rail_urban rail rail_electric rail_fast ship" speed="9.72" length="12.01" shape="2205.51,2685.01 2208.67,2685.90 2211.35,2686.28 2214.08,2686.25 2217.35,2685.89"/>
    </edge>
    <edge id=":4486134560_7" function="internal">
        <lane id=":4486134560_7_0" index="0" disallow="tram rail_urban rail rail_electric rail_fast ship" speed="10.57" length="13.15" shape="2205.51,2685.01 2207.86,2686.25 2209.93,2688.35 2211.72,2691.30 2213.25,2695.10"/>
    </edge>
    <edge id=":4486134560_8" function="internal">
        <lane id=":4486134560_8_0" index="0" disallow="tram rail_urban rail rail_electric rail_fast ship" speed="3.65" length="2.61" shape="2205.51,2685.01 2206.40,2686.14 2206.53,2687.03 2206.34,2687.22"/>
    </edge>
    <edge id=":4486134560_11" function="internal">
        <lane id=":4486134560_11_0" index="0" disallow="tram rail_urban rail rail_electric rail_fast ship" speed="3.65" length="2.07" shape="2206.34,2687.22 2205.90,2687.66 2204.51,2688.05"/>
    </edge>
    <edge id=":5130233478_0" function="internal">
        <lane id=":5130233478_0_0" index="0" disallow="tram rail_urban rail rail_electric rail_fast ship" speed="6.08" length="7.60" shape="2131.23,2974.64 2129.20,2975.07 2127.50,2974.75 2126.14,2973.68 2125.13,2971.87"/>
    </edge>
    <edge id=":5130233478_1" function="internal">
        <lane id=":5130233478_1_0" index="0" disallow="tram rail_urban rail rail_electric rail_fast ship" speed="3.65" length="4.67" shape="2131.23,2974.64 2129.83,2974.30 2129.18,2973.68 2129.29,2972.79 2130.14,2971.63"/>
    </edge>
    <edge id=":5130233478_2" function="internal">
        <lane id=":5130233478_2_0" index="0" disallow="tram rail_urban rail rail_electric rail_fast ship" speed="3.91" length="2.53" shape="2128.11,2970.71 2128.45,2971.31 2128.90,2971.67 2129.46,2971.77 2130.14,2971.63"/>
    </edge>
    <edge id=":5130233478_3" function="internal">
        <lane id=":5130233478_3_0" index="0" disallow="tram rail_urban rail rail_electric rail_fast ship" speed="3.65" length="4.67" shape="2128.11,2970.71 2127.80,2972.12 2127.20,2972.78 2126.31,2972.70 2125.13,2971.87"/>
    </edge>
    <edge id=":5130333344_0" function="internal">
        <lane id=":5130333344_0_0" index="0" disallow="tram rail_urban rail rail_electric rail_fast ship" speed="7.17" length="9.78" shape="2291.43,2934.28 2290.00,2932.31 2288.12,2931.17 2285.80,2930.86 2283.05,2931.39"/>
    </edge>
    <edge id=":5130333344_1" function="internal">
        <lane id=":5130333344_1_0" index="0" disallow="tram rail_urban rail rail_electric rail_fast ship" speed="13.89" length="15.49" shape="2291.43,2934.28 2284.79,2920.29"/>
    </edge>
    <edge id=":5130333344_2" function="internal">
        <lane id=":5130333344_2_0" index="0" speed="9.54" length="6.05" shape="2291.43,2934.28 2290.30,2930.78 2290.42,2928.42"/>
    </edge>
    <edge id=":5130333344_3" function="internal">
        <lane id=":5130333344_3_0" index="0" disallow="tram rail_urban rail rail_electric rail_fast ship" speed="3.65" length="2.34" shape="2291.43,2934.28 2291.60,2932.85 2292.13,2932.13"/>
    </edge>
    <edge id=":5130333344_15" function="internal">
        <lane id=":5130333344_15_0" index="0" speed="9.54" length="9.45" shape="2290.42,2928.42 2290.48,2927.27 2291.96,2923.76 2294.75,2920.24"/>
    </edge>
    <edge id=":5130333344_16" function="internal">
        <lane id=":5130333344_16_0" index="0" disallow="tram rail_urban rail rail_electric rail_fast ship" speed="3.65" length="2.34" shape="2292.13,2932.13 2293.03,2932.12 2294.28,2932.83"/>
    </edge>
    <edge id=":5130333344_4" function="internal">
        <lane id=":5130333344_4_0" index="0" disallow="tram rail_urban rail rail_electric rail_fast ship" speed="8.28" length="11.49" shape="2297.04,2922.47 2294.89,2925.15 2293.71,2927.76 2293.51,2930.32 2294.28,2932.83"/>
    </edge>
    <edge id=":5130333344_5" function="internal">
        <lane id=":5130333344_5_0" index="0" disallow="tram rail_urban rail rail_electric rail_fast ship" speed="13.89" length="16.72" shape="2297.04,2922.47 2294.05,2925.16 2290.52,2927.71 2286.75,2929.86 2283.05,2931.39"/>
    </edge>
    <edge id=":5130333344_6" function="internal">
        <lane id=":5130333344_6_0" index="0" disallow="tram rail_urban rail rail_electric rail_fast ship" speed="7.50" length="15.88" shape="2297.04,2922.47 2293.37,2925.30 2290.11,2925.88 2287.25,2924.21 2284.79,2920.29"/>
    </edge>
    <edge id=":5130333344_7" function="internal">
        <lane id=":5130333344_7_0" index="0" speed="5.85" length="9.12" shape="2287.71,2918.98 2289.13,2921.24 2290.77,2922.20 2292.64,2921.86 2294.75,2920.24"/>
    </edge>
    <edge id=":5130333344_8" function="internal">
        <lane id=":5130333344_8_0" index="0" disallow="tram rail_urban rail rail_electric rail_fast ship" speed="13.89" length="15.32" shape="2287.71,2918.98 2294.28,2932.83"/>
    </edge>
    <edge id=":5130333344_9" function="internal">
        <lane id=":5130333344_9_0" index="0" disallow="tram rail_urban rail rail_electric rail_fast ship" speed="8.02" length="6.35" shape="2287.71,2918.98 2289.03,2923.35 2288.86,2925.13"/>
    </edge>
    <edge id=":5130333344_10" function="internal">
        <lane id=":5130333344_10_0" index="0" disallow="tram rail_urban rail rail_electric rail_fast ship" speed="3.65" length="2.34" shape="2287.71,2918.98 2287.47,2920.41 2286.91,2921.10"/>
    </edge>
    <edge id=":5130333344_17" function="internal">
        <lane id=":5130333344_17_0" index="0" disallow="tram rail_urban rail rail_electric rail_fast ship" speed="8.02" length="9.18" shape="2288.86,2925.13 2288.69,2926.88 2286.70,2929.55 2283.05,2931.39"/>
    </edge>
    <edge id=":5130333344_18" function="internal">
        <lane id=":5130333344_18_0" index="0" disallow="tram rail_urban rail rail_electric rail_fast ship" speed="3.65" length="2.34" shape="2286.91,2921.10 2286.01,2921.06 2284.79,2920.29"/>
    </edge>
    <edge id=":5130333344_11" function="internal">
        <lane id=":5130333344_11_0" index="0" disallow="tram rail_urban rail rail_electric rail_fast ship" speed="6.54" length="9.93" shape="2282.09,2928.33 2284.33,2927.18 2285.53,2925.45 2285.68,2923.16 2284.79,2920.29"/>
    </edge>
    <edge id=":5130333344_12" function="internal">
        <lane id=":5130333344_12_0" index="0" speed="13.89" length="15.17" shape="2282.09,2928.33 2285.58,2926.94 2288.89,2925.06 2291.97,2922.80 2294.75,2920.24"/>
    </edge>
    <edge id=":5130333344_13" function="internal">
        <lane id=":5130333344_13_0" index="0" disallow="tram rail_urban rail rail_electric rail_fast ship" speed="8.57" length="14.33" shape="2282.09,2928.33 2286.05,2927.61 2289.40,2928.11 2292.15,2929.85 2294.28,2932.83"/>
    </edge>
    <edge id=":5130333344_14" function="internal">
        <lane id=":5130333344_14_0" index="0" disallow="tram rail_urban rail rail_electric rail_fast ship" speed="3.65" length="4.67" shape="2282.09,2928.33 2283.47,2928.74 2284.09,2929.38 2283.95,2930.26 2283.05,2931.39"/>
    </edge>
    <edge id=":5130333345_0" function="internal">
        <lane id=":5130333345_0_0" index="0" disallow="tram rail_urban rail rail_electric rail_fast ship" speed="6.07" length="8.10" shape="2308.75,2961.17 2309.47,2963.29 2309.32,2965.09 2308.29,2966.58 2306.38,2967.75"/>
    </edge>
    <edge id=":5130333345_1" function="internal">
        <lane id=":5130333345_1_0" index="0" disallow="tram rail_urban rail rail_electric rail_fast ship" speed="3.65" length="4.67" shape="2308.75,2961.17 2308.58,2962.60 2308.05,2963.32 2307.15,2963.33 2305.90,2962.62"/>
    </edge>
    <edge id=":5130333345_2" function="internal">
        <lane id=":5130333345_2_0" index="0" disallow="tram rail_urban rail rail_electric rail_fast ship" speed="3.90" length="2.70" shape="2305.11,2964.82 2305.74,2964.43 2306.09,2963.93 2306.14,2963.33 2305.90,2962.62"/>
    </edge>
    <edge id=":5130333345_3" function="internal">
        <lane id=":5130333345_3_0" index="0" disallow="tram rail_urban rail rail_electric rail_fast ship" speed="3.65" length="4.67" shape="2305.11,2964.82 2306.53,2965.07 2307.21,2965.65 2307.16,2966.54 2306.38,2967.75"/>
    </edge>
    <edge id=":6584935018_0" function="internal">
        <lane id=":6584935018_0_0" index="0" disallow="tram rail_urban rail rail_electric rail_fast ship" speed="11.10" length="22.82" shape="2243.79,2949.42 2241.86,2948.10 2237.50,2947.57 2230.71,2947.83 2221.48,2948.90"/>
    </edge>
    <edge id=":6584935018_1" function="internal">
        <lane id=":6584935018_1_0" index="0" speed="13.15" length="25.54" shape="2243.79,2949.42 2241.38,2946.65 2236.66,2944.42 2229.62,2942.73 2220.28,2941.59"/>
    </edge>
    <edge id=":6584935018_2" function="internal">
        <lane id=":6584935018_2_0" index="0" disallow="tram rail_urban rail rail_electric rail_fast ship" speed="7.82" length="14.60" shape="2243.79,2949.42 2242.79,2945.48 2243.35,2942.29 2245.48,2939.85 2249.17,2938.15"/>
    </edge>
    <edge id=":6584935018_3" function="internal">
        <lane id=":6584935018_3_0" index="0" disallow="tram rail_urban rail rail_electric rail_fast ship" speed="3.65" length="4.67" shape="2243.79,2949.42 2244.07,2948.01 2244.66,2947.33 2245.55,2947.39 2246.75,2948.20"/>
    </edge>
    <edge id=":6584935018_4" function="internal">
        <lane id=":6584935018_4_0" index="0" disallow="tram rail_urban rail rail_electric rail_fast ship" speed="6.29" length="9.04" shape="2250.08,2941.22 2247.79,2942.27 2246.47,2943.78 2246.13,2945.76 2246.75,2948.20"/>
    </edge>
    <edge id=":6584935018_5" function="internal">
        <lane id=":6584935018_5_0" index="0" disallow="tram rail_urban rail rail_electric rail_fast ship" speed="13.89" length="29.62" shape="2250.08,2941.22 2244.28,2942.92 2235.84,2945.33 2227.37,2947.60 2221.48,2948.90"/>
    </edge>
    <edge id=":6584935018_6" function="internal">
        <lane id=":6584935018_6_0" index="0" speed="13.89" length="8.38" shape="2250.08,2941.22 2244.10,2941.93 2241.74,2941.98"/>
    </edge>
    <edge id=":6584935018_7" function="internal">
        <lane id=":6584935018_7_0" index="0" disallow="tram rail_urban rail rail_electric rail_fast ship" speed="3.65" length="2.34" shape="2250.08,2941.22 2248.70,2940.79 2248.09,2940.14"/>
    </edge>
    <edge id=":6584935018_15" function="internal">
        <lane id=":6584935018_15_0" index="0" speed="13.89" length="21.47" shape="2241.74,2941.98 2235.25,2942.09 2226.36,2941.90 2220.28,2941.59"/>
    </edge>
    <edge id=":6584935018_16" function="internal">
        <lane id=":6584935018_16_0" index="0" disallow="tram rail_urban rail rail_electric rail_fast ship" speed="3.65" length="2.34" shape="2248.09,2940.14 2248.24,2939.26 2249.17,2938.15"/>
    </edge>
    <edge id=":6584935018_8" function="internal">
        <lane id=":6584935018_8_0" index="0" disallow="tram rail_urban rail rail_electric rail_fast ship" speed="13.89" length="28.67" shape="2220.55,2938.40 2226.45,2938.73 2234.93,2938.96 2243.37,2938.85 2249.17,2938.15"/>
    </edge>
    <edge id=":6584935018_9" function="internal">
        <lane id=":6584935018_9_0" index="0" disallow="tram rail_urban rail rail_electric rail_fast ship" speed="13.89" length="28.97" shape="2220.55,2938.40 2230.79,2939.73 2238.57,2941.81 2243.89,2944.63 2246.75,2948.20"/>
    </edge>
    <edge id=":6584935018_10" function="internal">
        <lane id=":6584935018_10_0" index="0" disallow="tram rail_urban rail rail_electric rail_fast ship" speed="5.90" length="14.72" shape="2220.55,2938.40 2223.97,2940.13 2225.38,2943.53 2224.60,2946.98 2221.48,2948.90"/>
    </edge>
    <edge id=":6584935018_11" function="internal">
        <lane id=":6584935018_11_0" index="0" speed="6.68" length="19.44" shape="2220.63,2945.78 2227.60,2944.54 2229.87,2943.43 2227.43,2942.45 2220.28,2941.59"/>
    </edge>
    <edge id=":6584935018_12" function="internal">
        <lane id=":6584935018_12_0" index="0" disallow="tram rail_urban rail rail_electric rail_fast ship" speed="13.89" length="29.55" shape="2220.63,2945.78 2226.50,2944.50 2234.96,2942.24 2243.38,2939.84 2249.17,2938.15"/>
    </edge>
    <edge id=":6584935018_13" function="internal">
        <lane id=":6584935018_13_0" index="0" disallow="tram rail_urban rail rail_electric rail_fast ship" speed="12.09" length="11.46" shape="2220.63,2945.78 2231.17,2944.69 2232.04,2944.69"/>
    </edge>
    <edge id=":6584935018_14" function="internal">
        <lane id=":6584935018_14_0" index="0" disallow="tram rail_urban rail rail_electric rail_fast ship" speed="3.66" length="2.46" shape="2220.63,2945.78 2222.01,2946.24 2222.61,2946.91 2222.59,2947.01"/>
    </edge>
    <edge id=":6584935018_17" function="internal">
        <lane id=":6584935018_17_0" index="0" disallow="tram rail_urban rail rail_electric rail_fast ship" speed="12.09" length="15.73" shape="2232.04,2944.69 2239.03,2944.73 2244.23,2945.90 2246.75,2948.20"/>
    </edge>
    <edge id=":6584935018_18" function="internal">
        <lane id=":6584935018_18_0" index="0" disallow="tram rail_urban rail rail_electric rail_fast ship" speed="3.66" length="2.25" shape="2222.59,2947.01 2222.44,2947.80 2221.48,2948.90"/>
    </edge>
    <edge id=":6584935019_0" function="internal">
        <lane id=":6584935019_0_0" index="0" disallow="tram rail_urban rail rail_electric rail_fast ship" speed="6.08" length="7.83" shape="2264.23,2986.03 2262.16,2986.60 2260.41,2986.36 2258.98,2985.32 2257.89,2983.47"/>
    </edge>
    <edge id=":6584935019_1" function="internal">
        <lane id=":6584935019_1_0" index="0" disallow="tram rail_urban rail rail_electric rail_fast ship" speed="3.65" length="2.65" shape="2264.23,2986.03 2262.81,2985.78 2262.13,2985.20 2262.14,2984.88"/>
    </edge>
    <edge id=":6584935019_4" function="internal">
        <lane id=":6584935019_4_0" index="0" disallow="tram rail_urban rail rail_electric rail_fast ship" speed="3.65" length="2.02" shape="2262.14,2984.88 2262.18,2984.31 2262.96,2983.10"/>
    </edge>
    <edge id=":6584935019_2" function="internal">
        <lane id=":6584935019_2_0" index="0" disallow="tram rail_urban rail rail_electric rail_fast ship" speed="3.90" length="2.61" shape="2260.84,2982.24 2261.21,2982.86 2261.68,2983.21 2262.27,2983.29 2262.96,2983.10"/>
    </edge>
    <edge id=":6584935019_3" function="internal">
        <lane id=":6584935019_3_0" index="0" disallow="tram rail_urban rail rail_electric rail_fast ship" speed="3.65" length="2.08" shape="2260.84,2982.24 2260.56,2983.66 2260.15,2984.14"/>
    </edge>
    <edge id=":6584935019_5" function="internal">
        <lane id=":6584935019_5_0" index="0" disallow="tram rail_urban rail rail_electric rail_fast ship" speed="3.65" length="2.59" shape="2260.15,2984.14 2259.98,2984.33 2259.09,2984.27 2257.89,2983.47"/>
    </edge>
    <edge id=":6584935028_0" function="internal">
        <lane id=":6584935028_0_0" index="0" speed="9.65" length="12.09" shape="2252.99,2848.54 2251.62,2846.50 2249.48,2844.87 2246.56,2843.65 2242.86,2842.84"/>
    </edge>
    <edge id=":6584935028_1" function="internal">
        <lane id=":6584935028_1_0" index="0" disallow="tram rail_urban rail rail_electric rail_fast ship" speed="13.89" length="15.07" shape="2252.99,2848.54 2247.67,2834.45"/>
    </edge>
    <edge id=":6584935028_2" function="internal">
        <lane id=":6584935028_2_0" index="0" disallow="tram rail_urban rail rail_electric rail_fast ship" speed="3.65" length="2.34" shape="2252.99,2848.54 2253.24,2847.12 2253.82,2846.43"/>
    </edge>
    <edge id=":6584935028_8" function="internal">
        <lane id=":6584935028_8_0" index="0" disallow="tram rail_urban rail rail_electric rail_fast ship" speed="3.65" length="2.34" shape="2253.82,2846.43 2254.71,2846.48 2255.92,2847.26"/>
    </edge>
    <edge id=":6584935028_3" function="internal">
        <lane id=":6584935028_3_0" index="0" disallow="tram rail_urban rail rail_electric rail_fast ship" speed="13.89" length="14.74" shape="2250.73,2833.47 2255.92,2847.26"/>
    </edge>
    <edge id=":6584935028_4" function="internal">
        <lane id=":6584935028_4_0" index="0" speed="7.38" length="6.79" shape="2250.73,2833.47 2251.98,2838.27 2251.48,2840.02"/>
    </edge>
    <edge id=":6584935028_5" function="internal">
        <lane id=":6584935028_5_0" index="0" disallow="tram rail_urban rail rail_electric rail_fast ship" speed="3.65" length="2.34" shape="2250.73,2833.47 2250.33,2834.86 2249.69,2835.48"/>
    </edge>
    <edge id=":6584935028_9" function="internal">
        <lane id=":6584935028_9_0" index="0" speed="7.38" length="10.05" shape="2251.48,2840.02 2251.09,2841.43 2248.05,2842.95 2242.86,2842.84"/>
    </edge>
    <edge id=":6584935028_10" function="internal">
        <lane id=":6584935028_10_0" index="0" disallow="tram rail_urban rail rail_electric rail_fast ship" speed="3.65" length="2.34" shape="2249.69,2835.48 2248.80,2835.35 2247.67,2834.45"/>
    </edge>
    <edge id=":6584935028_6" function="internal">
        <lane id=":6584935028_6_0" index="0" disallow="tram rail_urban rail rail_electric rail_fast ship" speed="5.67" length="9.34" shape="2243.34,2839.67 2246.20,2839.73 2247.88,2838.88 2248.37,2837.12 2247.67,2834.45"/>
    </edge>
    <edge id=":6584935028_7" function="internal">
        <lane id=":6584935028_7_0" index="0" disallow="tram rail_urban rail rail_electric rail_fast ship" speed="10.81" length="15.32" shape="2243.34,2839.67 2247.85,2840.70 2251.45,2842.31 2254.14,2844.50 2255.92,2847.26"/>
    </edge>
    <edge id=":6584935051_0" function="internal">
        <lane id=":6584935051_0_0" index="0" speed="9.52" length="12.81" shape="2236.83,2808.22 2235.28,2805.60 2233.06,2803.62 2230.18,2802.28 2226.63,2801.57"/>
    </edge>
    <edge id=":6584935051_1" function="internal">
        <lane id=":6584935051_1_0" index="0" disallow="tram rail_urban rail rail_electric rail_fast ship" speed="13.89" length="16.21" shape="2236.83,2808.22 2235.46,2804.52 2234.14,2800.56 2232.70,2796.65 2230.99,2793.12"/>
    </edge>
    <edge id=":6584935051_2" function="internal">
        <lane id=":6584935051_2_0" index="0" disallow="tram rail_urban rail rail_electric rail_fast ship" speed="7.74" length="6.54" shape="2236.83,2808.22 2236.40,2805.01 2237.24,2801.82"/>
    </edge>
    <edge id=":6584935051_3" function="internal">
        <lane id=":6584935051_3_0" index="0" disallow="tram rail_urban rail rail_electric rail_fast ship" speed="3.65" length="2.34" shape="2236.83,2808.22 2237.11,2806.81 2237.69,2806.13"/>
    </edge>
    <edge id=":6584935051_15" function="internal">
        <lane id=":6584935051_15_0" index="0" disallow="tram rail_urban rail rail_electric rail_fast ship" speed="7.74" length="7.04" shape="2237.24,2801.82 2237.30,2801.59 2239.24,2798.62 2241.91,2796.76"/>
    </edge>
    <edge id=":6584935051_16" function="internal">
        <lane id=":6584935051_16_0" index="0" disallow="tram rail_urban rail rail_electric rail_fast ship" speed="3.65" length="2.34" shape="2237.69,2806.13 2238.59,2806.20 2239.78,2807.00"/>
    </edge>
    <edge id=":6584935051_4" function="internal">
        <lane id=":6584935051_4_0" index="0" disallow="tram rail_urban rail rail_electric rail_fast ship" speed="6.46" length="9.12" shape="2243.03,2799.76 2240.80,2800.97 2239.51,2802.58 2239.18,2804.59 2239.78,2807.00"/>
    </edge>
    <edge id=":6584935051_5" function="internal">
        <lane id=":6584935051_5_0" index="0" speed="13.89" length="16.61" shape="2243.03,2799.76 2239.19,2800.85 2234.94,2801.51 2230.64,2801.74 2226.63,2801.57"/>
    </edge>
    <edge id=":6584935051_6" function="internal">