<?xml version="1.0" encoding="UTF-8"?>

<!-- generated on Sat 22 Feb 2020 08:18:18 AM WITA by Eclipse SUMO netedit Version 1.4.0
<configuration xmlns:xsi="http://www.w3.org/2001/XMLSchema-instance" xsi:noNamespaceSchemaLocation="http://sumo.dlr.de/xsd/netconvertConfiguration.xsd">

    <input>
        <sumo-net-file value="/home/adisaputra/NS/voip/Project-Jitter-Buffer-master/osm%20files/map.net.xml"/>
    </input>

    <output>
        <output-file value="/home/adisaputra/NS/voip/Project-Jitter-Buffer-master/osm%20files/map.net.xml"/>
    </output>

    <processing>
        <geometry.min-radius.fix.railways value="false"/>
        <geometry.max-grade.fix value="false"/>
        <offset.disable-normalization value="true"/>
        <lefthand value="false"/>
    </processing>

    <junctions>
        <no-turnarounds value="true"/>
        <junctions.corner-detail value="5"/>
        <junctions.limit-turn-speed value="5.5"/>
        <rectangular-lane-cut value="false"/>
    </junctions>

    <pedestrian>
        <walkingareas value="false"/>
    </pedestrian>

    <report>
        <aggregate-warnings value="5"/>
    </report>

</configuration>
-->

<net version="1.3" junctionCornerDetail="5" limitTurnSpeed="5.50" xmlns:xsi="http://www.w3.org/2001/XMLSchema-instance" xsi:noNamespaceSchemaLocation="http://sumo.dlr.de/xsd/net_file.xsd">

    <location netOffset="-329165.89,930795.17" convBoundary="18.57,0.00,3351.68,4455.53" origBoundary="115.448347,-8.417527,115.501639,-8.341677" projParameter="+proj=utm +zone=50 +ellps=WGS84 +datum=WGS84 +units=m +no_defs"/>

    <type id="highway.bridleway" priority="1" numLanes="1" speed="2.78" allow="pedestrian" oneway="1" width="2.00"/>
    <type id="highway.bus_guideway" priority="1" numLanes="1" speed="27.78" allow="bus" oneway="1"/>
    <type id="highway.cycleway" priority="1" numLanes="1" speed="8.33" allow="bicycle" oneway="0" width="1.00"/>
    <type id="highway.footway" priority="1" numLanes="1" speed="2.78" allow="pedestrian" oneway="1" width="2.00"/>
    <type id="highway.ford" priority="1" numLanes="1" speed="2.78" allow="army" oneway="0"/>
    <type id="highway.living_street" priority="2" numLanes="1" speed="2.78" disallow="tram rail_urban rail rail_electric rail_fast ship" oneway="0"/>
    <type id="highway.motorway" priority="14" numLanes="2" speed="39.44" allow="private emergency authority army vip passenger hov taxi bus coach delivery truck trailer motorcycle evehicle custom1 custom2" oneway="1"/>
    <type id="highway.motorway_link" priority="9" numLanes="1" speed="22.22" allow="private emergency authority army vip passenger hov taxi bus coach delivery truck trailer motorcycle evehicle custom1 custom2" oneway="1"/>
    <type id="highway.path" priority="1" numLanes="1" speed="2.78" allow="pedestrian bicycle" oneway="1" width="2.00"/>
    <type id="highway.pedestrian" priority="1" numLanes="1" speed="2.78" allow="pedestrian" oneway="1" width="2.00"/>
    <type id="highway.primary" priority="12" numLanes="2" speed="27.78" disallow="tram rail_urban rail rail_electric rail_fast ship" oneway="0"/>
    <type id="highway.primary_link" priority="7" numLanes="1" speed="22.22" disallow="tram rail_urban rail rail_electric rail_fast ship" oneway="0"/>
    <type id="highway.raceway" priority="15" numLanes="2" speed="83.33" allow="vip" oneway="0"/>
    <type id="highway.residential" priority="3" numLanes="1" speed="13.89" disallow="tram rail_urban rail rail_electric rail_fast ship" oneway="0"/>
    <type id="highway.secondary" priority="11" numLanes="1" speed="27.78" disallow="tram rail_urban rail rail_electric rail_fast ship" oneway="0"/>
    <type id="highway.secondary_link" priority="6" numLanes="1" speed="22.22" disallow="tram rail_urban rail rail_electric rail_fast ship" oneway="0"/>
    <type id="highway.service" priority="1" numLanes="1" speed="5.56" allow="pedestrian delivery bicycle" oneway="0"/>
    <type id="highway.stairs" priority="1" numLanes="1" speed="1.39" allow="pedestrian" oneway="1" width="2.00"/>
    <type id="highway.step" priority="1" numLanes="1" speed="1.39" allow="pedestrian" oneway="1" width="2.00"/>
    <type id="highway.steps" priority="1" numLanes="1" speed="1.39" allow="pedestrian" oneway="1" width="2.00"/>
    <type id="highway.tertiary" priority="10" numLanes="1" speed="22.22" disallow="tram rail_urban rail rail_electric rail_fast ship" oneway="0"/>
    <type id="highway.tertiary_link" priority="5" numLanes="1" speed="22.22" disallow="tram rail_urban rail rail_electric rail_fast ship" oneway="0"/>
    <type id="highway.track" priority="1" numLanes="1" speed="5.56" disallow="tram rail_urban rail rail_electric rail_fast ship" oneway="0"/>
    <type id="highway.trunk" priority="13" numLanes="2" speed="27.78" disallow="pedestrian bicycle tram rail_urban rail rail_electric rail_fast ship" oneway="0"/>
    <type id="highway.trunk_link" priority="8" numLanes="1" speed="22.22" disallow="pedestrian bicycle tram rail_urban rail rail_electric rail_fast ship" oneway="0"/>
    <type id="highway.unclassified" priority="4" numLanes="1" speed="13.89" disallow="tram rail_urban rail rail_electric rail_fast ship" oneway="0"/>
    <type id="highway.unsurfaced" priority="1" numLanes="1" speed="8.33" disallow="tram rail_urban rail rail_electric rail_fast ship" oneway="0"/>
    <type id="railway.highspeed" priority="21" numLanes="1" speed="69.44" allow="rail_fast" oneway="1"/>
    <type id="railway.light_rail" priority="19" numLanes="1" speed="27.78" allow="rail_urban" oneway="1"/>
    <type id="railway.preserved" priority="16" numLanes="1" speed="27.78" allow="rail" oneway="1"/>
    <type id="railway.rail" priority="20" numLanes="1" speed="44.44" allow="rail" oneway="1"/>
    <type id="railway.subway" priority="18" numLanes="1" speed="27.78" allow="rail_urban" oneway="1"/>
    <type id="railway.tram" priority="17" numLanes="1" speed="13.89" allow="tram" oneway="1"/>

    <edge id=":1553949747_0" function="internal">
        <lane id=":1553949747_0_0" index="0" disallow="tram rail_urban rail rail_electric rail_fast ship" speed="3.65" length="4.67" shape="3236.03,4454.51 3236.18,4455.95 3235.82,4456.76 3234.95,4456.96 3233.57,4456.55"/>
    </edge>
    <edge id=":5148694978_0" function="internal">
        <lane id=":5148694978_0_0" index="0" disallow="tram rail_urban rail rail_electric rail_fast ship" speed="22.22" length="20.38" shape="3135.50,4367.06 3117.50,4357.50"/>
    </edge>
    <edge id=":5148694978_1" function="internal">
        <lane id=":5148694978_1_0" index="0" disallow="tram rail_urban rail rail_electric rail_fast ship" speed="6.39" length="4.52" shape="3135.50,4367.06 3132.63,4364.12 3132.59,4363.70"/>
    </edge>
    <edge id=":5148694978_2" function="internal">
        <lane id=":5148694978_2_0" index="0" disallow="tram rail_urban rail rail_electric rail_fast ship" speed="3.65" length="2.34" shape="3135.50,4367.06 3134.81,4365.79 3134.83,4364.89"/>
    </edge>
    <edge id=":5148694978_9" function="internal">
        <lane id=":5148694978_9_0" index="0" disallow="tram rail_urban rail rail_electric rail_fast ship" speed="6.39" length="10.94" shape="3132.59,4363.70 3132.25,4360.51 3134.11,4357.40 3137.94,4355.93"/>
    </edge>
    <edge id=":5148694978_10" function="internal">
        <lane id=":5148694978_10_0" index="0" disallow="tram rail_urban rail rail_electric rail_fast ship" speed="3.65" length="2.34" shape="3134.83,4364.89 3135.56,4364.38 3137.00,4364.23"/>
    </edge>
    <edge id=":5148694978_3" function="internal">
        <lane id=":5148694978_3_0" index="0" disallow="tram rail_urban rail rail_electric rail_fast ship" speed="5.51" length="11.02" shape="3138.12,4359.12 3134.40,4359.64 3132.98,4360.67 3133.84,4362.20 3137.00,4364.23"/>
    </edge>
    <edge id=":5148694978_4" function="internal">
        <lane id=":5148694978_4_0" index="0" disallow="tram rail_urban rail rail_electric rail_fast ship" speed="18.05" length="20.83" shape="3138.12,4359.12 3133.41,4359.32 3127.59,4359.29 3121.88,4358.78 3117.50,4357.50"/>
    </edge>
    <edge id=":5148694978_5" function="internal">
        <lane id=":5148694978_5_0" index="0" disallow="tram rail_urban rail rail_electric rail_fast ship" speed="3.65" length="4.67" shape="3138.12,4359.12 3136.88,4358.39 3136.43,4357.62 3136.79,4356.79 3137.94,4355.93"/>
    </edge>
    <edge id=":5148694978_6" function="internal">
        <lane id=":5148694978_6_0" index="0" disallow="tram rail_urban rail rail_electric rail_fast ship" speed="18.05" length="19.14" shape="3119.00,4354.67 3123.12,4355.90 3128.26,4356.28 3133.50,4356.18 3137.94,4355.93"/>
    </edge>
    <edge id=":5148694978_7" function="internal">
        <lane id=":5148694978_7_0" index="0" disallow="tram rail_urban rail rail_electric rail_fast ship" speed="22.22" length="20.38" shape="3119.00,4354.67 3137.00,4364.23"/>
    </edge>
    <edge id=":5148694978_8" function="internal">
        <lane id=":5148694978_8_0" index="0" disallow="tram rail_urban rail rail_electric rail_fast ship" speed="3.65" length="2.34" shape="3119.00,4354.67 3119.69,4355.94 3119.66,4356.84"/>
    </edge>
    <edge id=":5148694978_11" function="internal">
        <lane id=":5148694978_11_0" index="0" disallow="tram rail_urban rail rail_electric rail_fast ship" speed="3.65" length="2.34" shape="3119.66,4356.84 3118.93,4357.36 3117.50,4357.50"/>
    </edge>
    <edge id=":5148695012_0" function="internal">
        <lane id=":5148695012_0_0" index="0" disallow="tram rail_urban rail rail_electric rail_fast ship" speed="3.65" length="4.67" shape="3248.26,3672.22 3249.47,3673.00 3249.88,3673.80 3249.49,3674.60 3248.30,3675.42"/>
    </edge>
    <edge id=":5148695019_0" function="internal">
        <lane id=":5148695019_0_0" index="0" disallow="tram rail_urban rail rail_electric rail_fast ship" speed="8.05" length="10.82" shape="2925.04,3766.19 2921.93,3765.20 2919.22,3765.06 2916.92,3765.74 2915.01,3767.26"/>
    </edge>
    <edge id=":5148695019_1" function="internal">
        <lane id=":5148695019_1_0" index="0" disallow="tram rail_urban rail rail_electric rail_fast ship" speed="7.57" length="15.48" shape="2925.04,3766.19 2921.23,3763.90 2919.47,3761.11 2919.77,3757.83 2922.13,3754.06"/>
    </edge>
    <edge id=":5148695019_2" function="internal">
        <lane id=":5148695019_2_0" index="0" disallow="tram rail_urban rail rail_electric rail_fast ship" speed="3.65" length="4.67" shape="2925.04,3766.19 2924.25,3764.98 2924.19,3764.09 2924.87,3763.51 2926.29,3763.24"/>
    </edge>
    <edge id=":5148695019_3" function="internal">
        <lane id=":5148695019_3_0" index="0" disallow="tram rail_urban rail rail_electric rail_fast ship" speed="5.95" length="9.09" shape="2924.58,3756.12 2923.19,3758.33 2923.02,3760.26 2924.05,3761.89 2926.29,3763.24"/>
    </edge>
    <edge id=":5148695019_4" function="internal">
        <lane id=":5148695019_4_0" index="0" disallow="tram rail_urban rail rail_electric rail_fast ship" speed="13.89" length="14.68" shape="2924.58,3756.12 2915.01,3767.26"/>
    </edge>
    <edge id=":5148695019_5" function="internal">
        <lane id=":5148695019_5_0" index="0" disallow="tram rail_urban rail rail_electric rail_fast ship" speed="3.65" length="2.34" shape="2924.58,3756.12 2923.19,3756.52 2922.32,3756.31"/>
    </edge>
    <edge id=":5148695019_9" function="internal">
        <lane id=":5148695019_9_0" index="0" disallow="tram rail_urban rail rail_electric rail_fast ship" speed="3.65" length="2.34" shape="2922.32,3756.31 2921.97,3755.49 2922.13,3754.06"/>
    </edge>
    <edge id=":5148695019_6" function="internal">
        <lane id=":5148695019_6_0" index="0" disallow="tram rail_urban rail rail_electric rail_fast ship" speed="13.89" length="14.61" shape="2912.61,3765.14 2922.13,3754.06"/>
    </edge>
    <edge id=":5148695019_7" function="internal">
        <lane id=":5148695019_7_0" index="0" disallow="tram rail_urban rail rail_electric rail_fast ship" speed="9.34" length="5.42" shape="2912.61,3765.14 2915.32,3762.92 2917.14,3762.32"/>
    </edge>
    <edge id=":5148695019_8" function="internal">
        <lane id=":5148695019_8_0" index="0" disallow="tram rail_urban rail rail_electric rail_fast ship" speed="3.65" length="2.34" shape="2912.61,3765.14 2914.01,3764.77 2914.87,3765.00"/>
    </edge>
    <edge id=":5148695019_10" function="internal">
        <lane id=":5148695019_10_0" index="0" disallow="tram rail_urban rail rail_electric rail_fast ship" speed="9.34" length="9.41" shape="2917.14,3762.32 2918.50,3761.87 2922.15,3761.97 2926.29,3763.24"/>
    </edge>
    <edge id=":5148695019_11" function="internal">
        <lane id=":5148695019_11_0" index="0" disallow="tram rail_urban rail rail_electric rail_fast ship" speed="3.65" length="2.34" shape="2914.87,3765.00 2915.21,3765.83 2915.01,3767.26"/>
    </edge>
    <edge id=":5148695121_0" function="internal">
        <lane id=":5148695121_0_0" index="0" disallow="tram rail_urban rail rail_electric rail_fast ship" speed="13.89" length="0.13" shape="2885.29,3785.33 2885.18,3785.39"/>
    </edge>
    <edge id=":5148695121_1" function="internal">
        <lane id=":5148695121_1_0" index="0" disallow="tram rail_urban rail rail_electric rail_fast ship" speed="13.89" length="0.27" shape="2883.67,3782.57 2883.91,3782.44"/>
    </edge>
    <edge id=":5148695122_0" function="internal">
        <lane id=":5148695122_0_0" index="0" disallow="tram rail_urban rail rail_electric rail_fast ship" speed="13.89" length="0.31" shape="3005.42,3706.72 3005.34,3706.75 3005.28,3706.78 3005.22,3706.80 3005.14,3706.85"/>
    </edge>
    <edge id=":5148695122_1" function="internal">
        <lane id=":5148695122_1_0" index="0" disallow="tram rail_urban rail rail_electric rail_fast ship" speed="3.65" length="2.34" shape="3005.42,3706.72 3004.03,3706.36 3003.39,3705.73"/>
    </edge>
    <edge id=":5148695122_4" function="internal">
        <lane id=":5148695122_4_0" index="0" disallow="tram rail_urban rail rail_electric rail_fast ship" speed="3.65" length="2.34" shape="3003.39,3705.73 3003.50,3704.85 3004.38,3703.70"/>
    </edge>
    <edge id=":5148695122_2" function="internal">
        <lane id=":5148695122_2_0" index="0" disallow="tram rail_urban rail rail_electric rail_fast ship" speed="13.89" length="0.92" shape="3003.54,3704.08 3003.78,3703.94 3003.95,3703.86 3004.12,3703.79 3004.38,3703.70"/>
    </edge>
    <edge id=":5148695122_3" function="internal">
        <lane id=":5148695122_3_0" index="0" disallow="tram rail_urban rail rail_electric rail_fast ship" speed="3.65" length="2.34" shape="3003.54,3704.08 3004.98,3704.17 3005.73,3704.66"/>
    </edge>
    <edge id=":5148695122_5" function="internal">
        <lane id=":5148695122_5_0" index="0" disallow="tram rail_urban rail rail_electric rail_fast ship" speed="3.65" length="2.34" shape="3005.73,3704.66 3005.78,3705.56 3005.14,3706.85"/>
    </edge>
    <edge id=":6584935024_0" function="internal">
        <lane id=":6584935024_0_0" index="0" disallow="tram rail_urban rail rail_electric rail_fast ship" speed="3.90" length="2.62" shape="2631.28,3725.23 2630.88,3724.63 2630.38,3724.32 2629.79,3724.27 2629.11,3724.51"/>
    </edge>
    <edge id=":6584935024_1" function="internal">
        <lane id=":6584935024_1_0" index="0" disallow="tram rail_urban rail rail_electric rail_fast ship" speed="3.65" length="4.67" shape="2631.28,3725.23 2631.48,3723.80 2632.02,3723.09 2632.92,3723.10 2634.16,3723.83"/>
    </edge>
    <edge id=":6584935024_2" function="internal">
        <lane id=":6584935024_2_0" index="0" disallow="tram rail_urban rail rail_electric rail_fast ship" speed="6.07" length="7.87" shape="2627.65,3721.66 2629.69,3720.96 2631.46,3721.08 2632.95,3722.04 2634.16,3723.83"/>
    </edge>
    <edge id=":6584935024_3" function="internal">
        <lane id=":6584935024_3_0" index="0" disallow="tram rail_urban rail rail_electric rail_fast ship" speed="3.65" length="4.67" shape="2627.65,3721.66 2629.08,3721.83 2629.80,3722.35 2629.81,3723.25 2629.11,3724.51"/>
    </edge>
    <edge id=":6584935025_0" function="internal">
        <lane id=":6584935025_0_0" index="0" disallow="tram rail_urban rail rail_electric rail_fast ship" speed="3.65" length="4.67" shape="2573.42,3753.13 2571.99,3752.97 2571.27,3752.44 2571.26,3751.55 2571.96,3750.29"/>
    </edge>
    <edge id=":6584935042_0" function="internal">
        <lane id=":6584935042_0_0" index="0" disallow="tram rail_urban rail rail_electric rail_fast ship" speed="22.22" length="14.58" shape="2743.28,3908.89 2734.57,3897.20"/>
    </edge>
    <edge id=":6584935042_1" function="internal">
        <lane id=":6584935042_1_0" index="0" disallow="tram rail_urban rail rail_electric rail_fast ship" speed="7.71" length="6.10" shape="2743.28,3908.89 2741.25,3905.22 2741.13,3903.32"/>
    </edge>
    <edge id=":6584935042_2" function="internal">
        <lane id=":6584935042_2_0" index="0" disallow="tram rail_urban rail rail_electric rail_fast ship" speed="3.65" length="2.34" shape="2743.28,3908.89 2743.20,3907.45 2743.59,3906.65"/>
    </edge>
    <edge id=":6584935042_9" function="internal">
        <lane id=":6584935042_9_0" index="0" disallow="tram rail_urban rail rail_electric rail_fast ship" speed="7.71" length="8.83" shape="2741.13,3903.32 2741.04,3901.96 2742.66,3899.13 2746.10,3896.72"/>
    </edge>
    <edge id=":6584935042_10" function="internal">
        <lane id=":6584935042_10_0" index="0" disallow="tram rail_urban rail rail_electric rail_fast ship" speed="3.65" length="2.34" shape="2743.59,3906.65 2744.47,3906.49 2745.83,3906.96"/>
    </edge>
    <edge id=":6584935042_3" function="internal">
        <lane id=":6584935042_3_0" index="0" disallow="tram rail_urban rail rail_electric rail_fast ship" speed="6.15" length="9.06" shape="2747.54,3899.58 2745.45,3901.04 2744.47,3902.76 2744.60,3904.73 2745.83,3906.96"/>
    </edge>
    <edge id=":6584935042_4" function="internal">
        <lane id=":6584935042_4_0" index="0" disallow="tram rail_urban rail rail_electric rail_fast ship" speed="8.62" length="14.55" shape="2747.54,3899.58 2743.65,3900.98 2740.19,3901.05 2737.16,3899.79 2734.57,3897.20"/>
    </edge>
    <edge id=":6584935042_5" function="internal">
        <lane id=":6584935042_5_0" index="0" disallow="tram rail_urban rail rail_electric rail_fast ship" speed="3.65" length="4.67" shape="2747.54,3899.58 2746.11,3899.40 2745.39,3898.87 2745.39,3897.97 2746.10,3896.72"/>
    </edge>
    <edge id=":6584935042_6" function="internal">
        <lane id=":6584935042_6_0" index="0" disallow="tram rail_urban rail rail_electric rail_fast ship" speed="7.23" length="9.98" shape="2737.15,3895.31 2738.90,3897.02 2740.97,3897.83 2743.37,3897.73 2746.10,3896.72"/>
    </edge>
    <edge id=":6584935042_7" function="internal">
        <lane id=":6584935042_7_0" index="0" disallow="tram rail_urban rail rail_electric rail_fast ship" speed="22.22" length="14.53" shape="2737.15,3895.31 2745.83,3906.96"/>
    </edge>
    <edge id=":6584935042_8" function="internal">
        <lane id=":6584935042_8_0" index="0" disallow="tram rail_urban rail rail_electric rail_fast ship" speed="3.65" length="2.34" shape="2737.15,3895.31 2737.21,3896.75 2736.80,3897.55"/>
    </edge>
    <edge id=":6584935042_11" function="internal">
        <lane id=":6584935042_11_0" index="0" disallow="tram rail_urban rail rail_electric rail_fast ship" speed="3.65" length="2.34" shape="2736.80,3897.55 2735.92,3897.70 2734.57,3897.20"/>
    </edge>

    <edge id="-210617558#2" from="6584935042" to="6584935024" priority="10" type="highway.tertiary" shape="2739.82,3901.68 2677.19,3815.95 2631.29,3721.59">
        <lane id="-210617558#2_0" index="0" disallow="tram rail_urban rail rail_electric rail_fast ship" speed="22.22" length="201.40" shape="2734.57,3897.20 2675.81,3816.78 2631.28,3725.23"/>
    </edge>
    <edge id="-210617558#3" from="5148694978" to="6584935042" priority="10" type="highway.tertiary" shape="3122.57,4358.38 3072.21,4331.64 3031.00,4296.26 3007.51,4257.44 2969.99,4184.51 2931.22,4125.67 2897.09,4090.31 2847.67,4037.30 2771.23,3943.09 2739.82,3901.68">
        <lane id="-210617558#3_0" index="0" disallow="tram rail_urban rail rail_electric rail_fast ship" speed="22.22" length="592.07" shape="3117.50,4357.50 3071.30,4332.97 3029.76,4297.31 3006.11,4258.22 2968.61,4185.32 2929.97,4126.67 2895.93,4091.41 2846.46,4038.35 2769.97,3944.08 2743.28,3908.89"/>
    </edge>
    <edge id="-210617558#4" from="1553949747" to="5148694978" priority="10" type="highway.tertiary" shape="3234.80,4455.53 3195.98,4408.42 3140.02,4367.65 3122.57,4358.38">
        <lane id="-210617558#4_0" index="0" disallow="tram rail_urban rail rail_electric rail_fast ship" speed="22.22" length="133.92" shape="3233.57,4456.55 3194.87,4409.59 3139.17,4369.01 3135.50,4367.06"/>
    </edge>
    <edge id="-530135874" from="5148694978" to="5148695019" priority="4" type="highway.unclassified" shape="3122.57,4358.38 3150.30,4356.85 3188.44,4347.61 3270.47,4294.22 3351.68,4248.87 3332.02,4217.51 3338.98,4187.81 3323.13,4162.51 3292.50,4135.40 3249.44,4117.91 3228.60,4084.96 3213.92,4062.31 3196.29,4036.42 3168.32,4012.69 3158.59,4008.39 3147.52,4004.98 3136.47,3998.62 3123.65,3993.30 3101.15,3966.20 3098.51,3959.89 3100.31,3953.29 3107.88,3945.25 3120.24,3937.16 3082.67,3875.96 3020.89,3808.23 2988.47,3792.26 2953.08,3776.27 2917.98,3761.47">
        <lane id="-530135874_0" index="0" disallow="tram rail_urban rail rail_electric rail_fast ship" speed="13.89" length="947.30" shape="3137.94,4355.93 3150.07,4355.26 3187.80,4346.12 3269.64,4292.85 3349.43,4248.29 3330.31,4217.79 3337.27,4188.09 3321.90,4163.56 3291.64,4136.78 3248.36,4119.20 3227.25,4085.82 3212.59,4063.20 3195.09,4037.50 3167.46,4014.06 3158.03,4009.89 3146.88,4006.46 3135.76,4000.06 3122.67,3994.63 3099.77,3967.04 3096.82,3960.00 3098.87,3952.48 3106.85,3944.02 3118.06,3936.67 3081.39,3876.93 3019.91,3809.53 2987.79,3793.71 2952.44,3777.74 2925.04,3766.19"/>
    </edge>
    <edge id="-530135875#0" from="5148695019" to="5148695121" priority="4" type="highway.unclassified" shape="2917.98,3761.47 2908.19,3772.58 2884.51,3783.93">
        <lane id="-530135875#0_0" index="0" disallow="tram rail_urban rail rail_electric rail_fast ship" speed="13.89" length="35.32" shape="2915.01,3767.26 2909.18,3773.88 2885.29,3785.33"/>
    </edge>
    <edge id="-530135875#1" from="5148695122" to="5148695019" priority="4" type="highway.unclassified" shape="3004.61,3705.31 2928.07,3749.48 2917.98,3761.47">
        <lane id="-530135875#1_0" index="0" disallow="tram rail_urban rail rail_electric rail_fast ship" speed="13.89" length="94.83" shape="3005.14,3706.85 2929.11,3750.73 2924.58,3756.12"/>
    </edge>
    <edge id="-530135875#2" from="5148695012" to="5148695122" priority="4" type="highway.unclassified" shape="3248.28,3673.82 3231.74,3674.06 3205.25,3648.42 3178.38,3647.14 3129.56,3667.50 3047.94,3690.36 3004.61,3705.31">
        <lane id="-530135875#2_0" index="0" disallow="tram rail_urban rail rail_electric rail_fast ship" speed="13.89" length="262.99" shape="3248.30,3675.42 3231.10,3675.67 3204.57,3649.99 3178.66,3648.76 3130.09,3669.01 3048.42,3691.89 3005.42,3706.72"/>
    </edge>
    <edge id="-701166833" from="6584935025" to="6584935024" priority="3" type="highway.residential">
        <lane id="-701166833_0" index="0" disallow="tram rail_urban rail rail_electric rail_fast ship" speed="13.89" length="62.62" shape="2571.96,3750.29 2627.65,3721.66"/>
    </edge>
    <edge id="-701166838" from="5148695121" to="6584935042" priority="4" type="highway.unclassified" shape="2884.51,3783.93 2871.02,3791.15 2830.35,3817.04 2825.70,3821.55 2822.50,3828.24 2819.75,3851.49 2818.63,3856.98 2816.08,3861.76 2810.55,3865.99 2739.82,3901.68">
        <lane id="-701166838_0" index="0" disallow="tram rail_urban rail rail_electric rail_fast ship" speed="13.89" length="190.13" shape="2885.18,3785.39 2871.83,3792.53 2831.35,3818.30 2827.02,3822.50 2824.06,3828.69 2821.33,3851.74 2820.15,3857.53 2817.33,3862.82 2811.40,3867.35 2747.54,3899.58"/>
    </edge>
    <edge id="210617558#2" from="6584935024" to="6584935042" priority="10" type="highway.tertiary" shape="2631.29,3721.59 2677.19,3815.95 2739.82,3901.68">
        <lane id="210617558#2_0" index="0" disallow="tram rail_urban rail rail_electric rail_fast ship" speed="22.22" length="200.83" shape="2634.16,3723.83 2678.57,3815.12 2737.15,3895.31"/>
    </edge>
    <edge id="210617558#3" from="6584935042" to="5148694978" priority="10" type="highway.tertiary" shape="2739.82,3901.68 2771.23,3943.09 2847.67,4037.30 2897.09,4090.31 2931.22,4125.67 2969.99,4184.51 3007.51,4257.44 3031.00,4296.26 3072.21,4331.64 3122.57,4358.38">
        <lane id="210617558#3_0" index="0" disallow="tram rail_urban rail rail_electric rail_fast ship" speed="22.22" length="590.67" shape="2745.83,3906.96 2772.49,3942.10 2848.88,4036.25 2898.25,4089.21 2932.47,4124.67 2971.37,4183.70 3008.91,4256.66 3032.24,4295.21 3073.12,4330.31 3119.00,4354.67"/>
    </edge>
    <edge id="210617558#4" from="5148694978" to="1553949747" priority="10" type="highway.tertiary" shape="3122.57,4358.38 3140.02,4367.65 3195.98,4408.42 3234.80,4455.53">
        <lane id="210617558#4_0" index="0" disallow="tram rail_urban rail rail_electric rail_fast ship" speed="22.22" length="135.19" shape="3137.00,4364.23 3140.87,4366.29 3197.09,4407.25 3236.03,4454.51"/>
    </edge>
    <edge id="530135874" from="5148695019" to="5148694978" priority="4" type="highway.unclassified" shape="2917.98,3761.47 2953.08,3776.27 2988.47,3792.26 3020.89,3808.23 3082.67,3875.96 3120.24,3937.16 3107.88,3945.25 3100.31,3953.29 3098.51,3959.89 3101.15,3966.20 3123.65,3993.30 3136.47,3998.62 3147.52,4004.98 3158.59,4008.39 3168.32,4012.69 3196.29,4036.42 3213.92,4062.31 3228.60,4084.96 3249.44,4117.91 3292.50,4135.40 3323.13,4162.51 3338.98,4187.81 3332.02,4217.51 3351.68,4248.87 3270.47,4294.22 3188.44,4347.61 3150.30,4356.85 3122.57,4358.38">
        <lane id="530135874_0" index="0" disallow="tram rail_urban rail rail_electric rail_fast ship" speed="13.89" length="958.56" shape="2926.29,3763.24 2953.72,3774.80 2989.15,3790.81 3021.87,3806.93 3083.95,3874.99 3122.42,3937.65 3108.91,3946.48 3101.75,3954.10 3100.20,3959.78 3102.53,3965.36 3124.63,3991.97 3137.18,3997.18 3148.16,4003.50 3159.15,4006.89 3169.18,4011.32 3197.49,4035.34 3215.25,4061.42 3229.95,4084.10 3250.52,4116.62 3293.36,4134.02 3324.36,4161.46 3340.69,4187.53 3333.73,4217.23 3353.93,4249.45 3271.30,4295.59 3189.08,4349.10 3150.53,4358.44 3138.12,4359.12"/>
    </edge>
    <edge id="530135875#0" from="5148695121" to="5148695019" priority="4" type="highway.unclassified" shape="2884.51,3783.93 2908.19,3772.58 2917.98,3761.47">
        <lane id="530135875#0_0" index="0" disallow="tram rail_urban rail rail_electric rail_fast ship" speed="13.89" length="34.01" shape="2883.91,3782.44 2907.20,3771.28 2912.61,3765.14"/>
    </edge>
    <edge id="530135875#1" from="5148695019" to="5148695122" priority="4" type="highway.unclassified" shape="2917.98,3761.47 2928.07,3749.48 3004.61,3705.31">
        <lane id="530135875#1_0" index="0" disallow="tram rail_urban rail rail_electric rail_fast ship" speed="13.89" length="95.95" shape="2922.13,3754.06 2927.03,3748.23 3003.54,3704.08"/>
    </edge>
    <edge id="530135875#2" from="5148695122" to="5148695012" priority="4" type="highway.unclassified" shape="3004.61,3705.31 3047.94,3690.36 3129.56,3667.50 3178.38,3647.14 3205.25,3648.42 3231.74,3674.06 3248.28,3673.82">
        <lane id="530135875#2_0" index="0" disallow="tram rail_urban rail rail_electric rail_fast ship" speed="13.89" length="264.00" shape="3004.38,3703.70 3047.46,3688.83 3129.03,3665.99 3178.10,3645.52 3205.93,3646.85 3232.38,3672.45 3248.26,3672.22"/>
    </edge>
    <edge id="701166833" from="6584935024" to="6584935025" priority="3" type="highway.residential">
        <lane id="701166833_0" index="0" disallow="tram rail_urban rail rail_electric rail_fast ship" speed="13.89" length="62.62" shape="2629.11,3724.51 2573.42,3753.13"/>
    </edge>
    <edge id="701166838" from="6584935042" to="5148695121" priority="4" type="highway.unclassified" shape="2739.82,3901.68 2810.55,3865.99 2816.08,3861.76 2818.63,3856.98 2819.75,3851.49 2822.50,3828.24 2825.70,3821.55 2830.35,3817.04 2871.02,3791.15 2884.51,3783.93">
        <lane id="701166838_0" index="0" disallow="tram rail_urban rail rail_electric rail_fast ship" speed="13.89" length="190.04" shape="2746.10,3896.72 2809.70,3864.63 2814.83,3860.70 2817.11,3856.43 2818.17,3851.24 2820.94,3827.79 2824.38,3820.60 2829.35,3815.78 2870.21,3789.77 2883.67,3782.57"/>
    </edge>

    <junction id="1553943673" type="dead_end" x="18.57" y="0.00" incLanes="" intLanes="" shape="18.57,0.00"/>
    <junction id="1553949747" type="priority" x="3234.80" y="4455.53" incLanes="210617558#4_0" intLanes=":1553949747_0_0" shape="3234.80,4455.53 3237.27,4453.50 3234.80,4455.53">
        <request index="0" response="0" foes="0" cont="0"/>
    </junction>
    <junction id="5148694978" type="priority" x="3122.57" y="4358.38" incLanes="-210617558#4_0 530135874_0 210617558#3_0" intLanes=":5148694978_0_0 :5148694978_9_0 :5148694978_10_0 :5148694978_3_0 :5148694978_4_0 :5148694978_5_0 :5148694978_6_0 :5148694978_7_0 :5148694978_11_0" shape="3134.74,4368.47 3137.75,4362.82 3138.21,4360.72 3137.86,4354.33 3133.93,4354.72 3130.92,4355.22 3128.41,4355.58 3125.99,4355.54 3123.24,4354.85 3119.75,4353.26 3116.75,4358.91">
        <request index="0" response="000000000" foes="100010000" cont="0"/>
        <request index="1" response="011000000" foes="011110000" cont="1"/>
        <request index="2" response="010001000" foes="010001000" cont="1"/>
        <request index="3" response="010000000" foes="010000100" cont="0"/>
        <request index="4" response="010000011" foes="110000011" cont="0"/>
        <request index="5" response="001000010" foes="001000010" cont="0"/>
        <request index="6" response="000000000" foes="000100010" cont="0"/>