<?xml version="1.0" encoding="UTF-8"?>

<!-- generated on Sat Feb 22 08:18:29 2020 by Eclipse SUMO polyconvert Version 1.4.0
<configuration xmlns:xsi="http://www.w3.org/2001/XMLSchema-instance" xsi:noNamespaceSchemaLocation="http://sumo.dlr.de/xsd/polyconvertConfiguration.xsd">

    <input>
        <net-file value="map.net.xml"/>
        <osm-files value="map.osm"/>
        <type-file value="osmNetconvertPedestrians.typ.xml"/>
    </input>

    <output>
        <output-file value="map.poly.xml"/>
    </output>

    <processing>
        <poi-layer-offset value="5"/>
    </processing>

</configuration>
-->

<additional xmlns:xsi="http://www.w3.org/2001/XMLSchema-instance" xsi:noNamespaceSchemaLocation="http://sumo.dlr.de/xsd/additional_file.xsd">
    <location netOffset="-329165.89,930795.17" convBoundary="-0.00,-0.00,5838.16,8411.03" origBoundary="115.448347,-8.417527,115.501639,-8.341677" projParameter="+proj=utm +zone=50 +ellps=WGS84 +datum=WGS84 +units=m +no_defs"/>

    <poly id="210613405" type="unknown" color="51,128,255" fill="0" layer="-1.00" shape="5838.158004,8411.025457 5695.700036,8138.064478 5563.218419,7860.506829 5518.555293,7796.945801 5517.801161,7685.411251 5434.220264,7602.923498 5395.635552,7493.589368 5317.864818,7435.774310 5265.376857,7391.038942 5227.388808,7301.602281 5169.121014,7221.621204 5117.030159,7113.352065 5045.999625,6972.275281 4997.359681,6886.325450 4956.103475,6862.689137 4884.551277,6855.437280 4838.586143,6824.738124 4827.570601,6790.589415 4830.399048,6667.334365 4814.220130,6572.185441 4736.505794,6500.279661 4683.619114,6424.951953 4619.056399,6315.528090 4563.941754,6203.795730 4549.987707,6146.212184 4551.893070,6088.766849 4575.667846,6052.473173 4585.908673,6024.267192 4554.391784,5919.669914 4492.065653,5841.949949 4343.963806,5638.300853 4222.681762,5526.313518 4126.258885,5402.687504 4062.864333,5296.783560 3983.862210,5254.222037 3858.461290,5291.307256 3793.601970,5257.016876 3776.279604,5153.645552 3613.563333,5062.630424 3645.763755,4986.445772 3654.179779,4948.920986 3636.821086,4912.170395 3597.906526,4890.299754 3555.088669,4809.722442 3508.829002,4702.136067 3468.731735,4681.432975 3450.147948,4691.015893 3369.279713,4732.706374 3253.521567,4722.869231 3194.657592,4665.110974 3081.599427,4569.596368 3040.512803,4500.172781 2907.292389,4421.013541 2833.263506,4315.076742 2762.539712,4271.361209 2746.170995,4226.695437 2719.345931,4135.031187 2661.650044,4083.160006 2633.601271,4003.224829 2573.473926,3967.778177 2544.201367,3899.572077 2461.757292,3831.170090 2434.321336,3828.785081 2322.559127,3771.936227 2202.296450,3703.386286 2156.409684,3653.904822 2094.164508,3557.401484 2038.904793,3485.587618 2059.446252,3369.456149 2104.767971,3261.638495 2063.853926,3148.784027 1992.433965,2979.473971 1980.835574,2926.310578 1981.251448,2893.156255 1953.889507,2866.340995 1853.159178,2791.407145 1826.153700,2746.699119 1787.866459,2717.197795 1723.034265,2677.329446 1649.734796,2614.534921 1594.651567,2574.118356 1584.162548,2535.933477 1549.296460,2465.359687 1525.170237,2439.220294"/>
    <poly id="210617558" type="unknown" color="51,128,255" fill="0" layer="-1.00" shape="18.572229,-0.001957 20.187007,39.906991 16.694061,101.516475 5.742037,180.703053 1.362277,243.779930 8.190202,310.418144 3.863456,357.348413 1.386464,384.920896 -0.001347,401.648362 0.178485,411.845900 0.589920,419.179954 2.195035,425.423853 4.465542,430.498086 11.645781,444.384050 20.301339,458.364333 25.421420,469.676333 31.113475,486.719399 34.885296,504.783385 46.335873,558.234887 49.986063,570.868192 55.539658,583.951415 64.905211,607.755293 79.117347,636.864784 95.392911,664.953908 109.623704,689.363186 125.007278,720.235742 157.822790,787.562897 213.002361,877.871562 280.226932,982.903631 358.644117,1098.242929 378.040131,1122.672473 400.676752,1149.171864 417.428043,1171.246330 435.334507,1201.984890 443.847828,1213.022657 449.723935,1219.792123 457.391029,1224.810211 506.908343,1251.714283 562.616523,1292.157347 615.506216,1324.051320 643.604409,1353.602364 691.463218,1424.129062 759.445710,1519.021483 829.105489,1615.944217 871.353086,1679.680133 915.028994,1735.912265 939.377434,1769.750372 943.760193,1792.229286 990.933285,1852.567043 1008.883118,1869.669148 1041.876559,1892.382235 1095.645812,1964.136955 1142.418318,2014.419899 1190.190072,2073.885996 1219.571915,2113.317575 1261.880510,2130.957585 1306.000457,2144.468445 1360.217415,2138.819783 1405.587087,2134.153807 1453.099514,2147.545106 1516.036667,2176.115004 1549.109260,2195.609639 1704.025348,2317.360997 1755.009308,2366.763749 1864.850180,2443.481075 1887.198311,2479.389762 1890.379626,2482.576241 1920.997018,2513.252985 1946.542629,2562.323704 1976.490426,2600.916272 1992.978760,2622.999891 2046.991656,2709.142114 2063.075002,2750.345729 2077.296379,2805.852862 2094.780584,2877.541491 2110.784355,2930.699912 2127.750994,2974.196206 2145.007184,3025.346684 2166.625441,3079.113114 2206.881614,3143.259536 2277.711539,3235.394647 2315.849922,3294.810314 2357.354712,3341.056314 2404.021903,3407.837429 2414.482610,3422.454373 2446.638029,3462.879800 2470.485701,3484.483049 2504.639799,3523.578016 2529.253001,3563.564800 2557.530096,3595.979120 2615.104234,3690.262619 2620.931866,3698.347527 2631.293103,3721.590274 2677.193183,3815.949886 2739.823244,3901.681788 2771.226642,3943.088201 2847.667977,4037.300708 2897.088494,4090.311785 2931.213946,4125.668090 2969.984119,4184.510212 3007.510344,4257.437005 3030.994638,4296.257724 3072.212920,4331.641360 3122.572883,4358.378818 3140.015304,4367.647726 3195.981906,4408.418922 3234.798146,4455.526961"/>
    <poly id="527289228" type="unknown" color="51,128,255" fill="1" layer="-1.00" shape="3084.399002,4321.768400 3103.245359,4318.313519 3101.929296,4311.197292 3083.082985,4314.641113 3084.399002,4321.768400"/>
    <poly id="527289229" type="unknown" color="51,128,255" fill="1" layer="-1.00" shape="3087.910302,4330.806393 3100.918773,4327.550074 3098.901161,4319.579563 3085.892692,4322.835881 3087.910302,4330.806393"/>
    <poly id="527289230" type="unknown" color="51,128,255" fill="1" layer="-1.00" shape="3088.126024,4331.979514 3089.739615,4339.052658 3100.013069,4336.747898 3098.399519,4329.663696 3088.126024,4331.979514"/>
    <poly id="527289231" type="unknown" color="51,128,255" fill="1" layer="-1.00" shape="3087.161912,4333.513020 3084.764667,4324.036972 3077.775354,4325.790432 3080.172641,4335.255421 3087.161912,4333.513020"/>
    <poly id="527289232" type="unknown" color="51,128,255" fill="1" layer="-1.00" shape="3069.975061,4309.458797 3083.430659,4304.501085 3080.149784,4295.685170 3066.683175,4300.642837 3069.975061,4309.458797"/>
    <poly id="527289233" type="unknown" color="51,128,255" fill="1" layer="-1.00" shape="3066.153101,4323.743654 3076.957807,4317.924104 3072.386580,4309.567677 3061.581832,4315.398286 3066.153101,4323.743654"/>
    <poly id="527289234" type="unknown" color="51,128,255" fill="1" layer="-1.00" shape="3014.055690,4256.566581 3020.727123,4268.624966 3032.867559,4262.003277 3026.185154,4249.933792 3014.055690,4256.566581"/>
    <poly id="527289236" type="unknown" color="51,128,255" fill="1" layer="-1.00" shape="3009.036520,4255.806146 3031.969824,4243.575004 3028.536275,4237.213654 3005.591959,4249.444751 3009.036520,4255.806146"/>
    <poly id="527289238" type="unknown" color="51,128,255" fill="1" layer="-1.00" shape="2983.453603,4264.001417 2989.237468,4272.052899 3000.347553,4264.166463 2994.552675,4256.114940 2983.453603,4264.001417"/>
    <poly id="527289240" type="unknown" color="51,128,255" fill="1" layer="-1.00" shape="2972.480749,4253.541000 2980.865672,4246.904760 2974.837420,4239.394234 2966.463510,4246.030515 2972.480749,4253.541000"/>
    <poly id="527289241" type="unknown" color="51,128,255" fill="1" layer="-1.00" shape="2962.017126,4231.050034 2965.698276,4236.040997 2975.406502,4228.967519 2971.714382,4223.965454 2962.017126,4231.050034"/>
    <poly id="527289243" type="unknown" color="51,128,255" fill="1" layer="-1.00" shape="2957.779943,4218.923662 2961.390164,4225.164053 2969.160863,4220.715175 2965.550598,4214.485844 2957.779943,4218.923662"/>
    <poly id="527289245" type="unknown" color="51,128,255" fill="1" layer="-1.00" shape="2956.119262,4206.962114 2960.169411,4213.359042 2968.460561,4208.182269 2964.410411,4201.785343 2956.119262,4206.962114"/>
    <poly id="527289247" type="unknown" color="51,128,255" fill="1" layer="-1.00" shape="2949.658427,4197.403933 2954.756408,4206.237973 2964.745613,4200.548001 2959.658644,4191.714005 2949.658427,4197.403933"/>
    <poly id="527289249" type="unknown" color="51,128,255" fill="1" layer="-1.00" shape="2946.372785,4189.826624 2949.613013,4194.915414 2960.719659,4187.913721 2957.468417,4182.824889 2946.372785,4189.826624"/>
    <poly id="527289250" type="unknown" color="51,128,255" fill="1" layer="-1.00" shape="2947.559739,4187.630427 2956.511938,4182.389866 2953.316965,4176.991592 2944.353710,4182.243169 2947.559739,4187.630427"/>
    <poly id="527289252" type="unknown" color="51,128,255" fill="1" layer="-1.00" shape="2871.151612,4141.482071 2882.551783,4152.497147 2895.002208,4139.783025 2883.613052,4128.767994 2871.151612,4141.482071"/>
    <poly id="527289253" type="unknown" color="51,128,255" fill="1" layer="-1.00" shape="2910.975513,4212.582058 2923.818660,4206.516091 2918.323406,4195.048391 2905.480262,4201.114355 2910.975513,4212.582058"/>
    <poly id="527289255" type="unknown" color="51,128,255" fill="1" layer="-1.00" shape="2970.843625,4161.676087 2966.742661,4154.184091 2959.370294,4158.158962 2963.471214,4165.662017 2970.843625,4161.676087"/>
    <poly id="527289256" type="unknown" color="51,128,255" fill="1" layer="-1.00" shape="2968.356802,4155.428994 2973.165915,4162.072170 2979.902774,4157.254325 2975.104673,4150.611193 2968.356802,4155.428994"/>
    <poly id="527289257" type="unknown" color="51,128,255" fill="1" layer="-1.00" shape="2990.574584,4160.137956 3003.686607,4152.889668 2998.327096,4143.335766 2985.215074,4150.584052 2990.574584,4160.137956"/>
    <poly id="527289258" type="unknown" color="51,128,255" fill="1" layer="-1.00" shape="2975.276285,4143.279542 2980.199723,4151.681589 2995.962169,4142.574561 2991.038729,4134.172516 2975.276285,4143.279542"/>
    <poly id="527289259" type="unknown" color="51,128,255" fill="1" layer="-1.00" shape="2961.117677,4156.285658 2975.694894,4148.932469 2971.180663,4140.089636 2956.603447,4147.442824 2961.117677,4156.285658"/>
    <poly id="527289260" type="unknown" color="51,128,255" fill="1" layer="-1.00" shape="2954.465331,4159.190569 2958.760288,4156.420285 2954.282346,4149.579324 2949.987389,4152.349608 2954.465331,4159.190569"/>
    <poly id="527289261" type="unknown" color="51,128,255" fill="1" layer="-1.00" shape="2945.359254,4144.479548 2955.794842,4140.118428 2951.942309,4131.045914 2941.517736,4135.407075 2945.359254,4144.479548"/>
    <poly id="527289262" type="unknown" color="51,128,255" fill="1" layer="-1.00" shape="2956.901515,4121.708981 2966.923859,4118.828203 2964.380656,4110.081489 2954.347258,4112.973282 2956.901515,4121.708981"/>
    <poly id="527289263" type="unknown" color="51,128,255" fill="1" layer="-1.00" shape="2941.556262,4116.960305 2944.505891,4123.142840 2954.413955,4118.492133 2951.464368,4112.298540 2941.556262,4116.960305"/>
    <poly id="527289264" type="unknown" color="51,128,255" fill="1" layer="-1.00" shape="2935.309736,4128.813764 2943.463912,4124.875109 2939.355376,4116.498335 2931.201202,4120.436989 2935.309736,4128.813764"/>
    <poly id="527289265" type="unknown" color="51,128,255" fill="1" layer="-1.00" shape="2930.691561,4118.377981 2939.198116,4114.451754 2936.259845,4108.180788 2927.753291,4112.107014 2930.691561,4118.377981"/>
    <poly id="527289266" type="unknown" color="51,128,255" fill="1" layer="-1.00" shape="2938.644879,4106.597501 2941.927292,4115.004248 2951.534309,4111.303474 2948.251894,4102.896728 2938.644879,4106.597501"/>
    <poly id="527289267" type="unknown" color="51,128,255" fill="1" layer="-1.00" shape="2953.172833,4111.940211 2966.331810,4106.782326 2963.528783,4099.715617 2950.358795,4104.873458 2953.172833,4111.940211"/>
    <poly id="527289268" type="unknown" color="51,128,255" fill="1" layer="-1.00" shape="2949.263189,4092.040415 2953.167020,4099.244108 2964.192260,4093.348032 2960.288429,4086.144341 2949.263189,4092.040415"/>
    <poly id="527289269" type="unknown" color="51,128,255" fill="1" layer="-1.00" shape="2943.606590,4102.292563 2950.899069,4099.036242 2947.972584,4092.566255 2940.680105,4095.822576 2943.606590,4102.292563"/>
    <poly id="527289270" type="unknown" color="51,128,255" fill="1" layer="-1.00" shape="2931.884736,4097.546881 2935.682323,4106.586007 2942.863599,4103.605738 2939.054997,4094.566570 2931.884736,4097.546881"/>
    <poly id="527289271" type="unknown" color="51,128,255" fill="1" layer="-1.00" shape="2931.697511,4106.061819 2929.219537,4097.536540 2921.214887,4099.838994 2923.692902,4108.353215 2931.697511,4106.061819"/>
    <poly id="527289272" type="unknown" color="51,128,255" fill="1" layer="-1.00" shape="2928.231539,4085.356412 2931.750832,4095.157551 2959.630940,4085.290224 2956.111641,4075.489088 2928.231539,4085.356412"/>
    <poly id="527289273" type="unknown" color="51,128,255" fill="1" layer="-1.00" shape="2910.439892,4083.816488 2914.698970,4090.291649 2923.576082,4084.531019 2919.328015,4078.055901 2910.439892,4083.816488"/>
    <poly id="527289274" type="unknown" color="51,128,255" fill="1" layer="-1.00" shape="2903.428722,4082.694409 2909.988210,4078.174489 2905.366255,4071.554147 2898.806768,4076.074067 2903.428722,4082.694409"/>
    <poly id="527289275" type="unknown" color="51,128,255" fill="1" layer="-1.00" shape="2898.608919,4090.162855 2904.033618,4085.749125 2900.580677,4081.555307 2895.144965,4085.968994 2898.608919,4090.162855"/>
    <poly id="527289276" type="unknown" color="51,128,255" fill="1" layer="-1.00" shape="2893.891476,4085.444342 2900.124002,4080.038410 2897.185379,4076.698155 2890.952853,4082.104087 2893.891476,4085.444342"/>
    <poly id="527289277" type="unknown" color="51,128,255" fill="1" layer="-1.00" shape="2834.338456,4018.304362 2842.288078,4027.337504 2854.742117,4016.525611 2846.781482,4007.492429 2834.338456,4018.304362"/>
    <poly id="527289279" type="unknown" color="51,128,255" fill="1" layer="-1.00" shape="2832.946048,4016.684297 2846.223587,4006.517044 2839.823782,3998.275131 2826.546243,4008.442381 2832.946048,4016.684297"/>
    <poly id="527289281" type="unknown" color="51,128,255" fill="1" layer="-1.00" shape="2815.737944,3995.339368 2829.637094,3986.756016 2823.835958,3977.498967 2809.947865,3986.071301 2815.737944,3995.339368"/>
    <poly id="527289282" type="unknown" color="51,128,255" fill="1" layer="-1.00" shape="2801.963015,3969.097428 2805.343845,3974.839280 2814.373120,3969.599052 2810.992333,3963.846142 2801.963015,3969.097428"/>
    <poly id="527289283" type="unknown" color="51,128,255" fill="1" layer="-1.00" shape="2807.819977,3963.977593 2815.843356,3959.684560 2810.408540,3949.687956 2802.385161,3953.980989 2807.819977,3963.977593"/>
    <poly id="527289284" type="unknown" color="51,128,255" fill="1" layer="-1.00" shape="2799.533653,3967.915707 2806.194577,3962.798994 2801.328944,3956.542647 2794.668063,3961.648299 2799.533653,3967.915707"/>
    <poly id="527289285" type="unknown" color="51,128,255" fill="1" layer="-1.00" shape="2720.862925,3877.808472 2715.647472,3870.887193 2710.400960,3874.792862 2715.616413,3881.714143 2720.862925,3877.808472"/>
    <poly id="527289286" type="unknown" color="51,128,255" fill="1" layer="-1.00" shape="2718.385270,3869.216816 2726.965621,3863.300245 2722.792810,3857.312000 2714.201489,3863.217468 2718.385270,3869.216816"/>
    <poly id="527289287" type="unknown" color="51,128,255" fill="1" layer="-1.00" shape="2787.164536,4013.575805 2792.645926,4020.088908 2799.684098,4014.254805 2794.202751,4007.730644 2787.164536,4013.575805"/>
    <poly id="527289288" type="unknown" color="51,128,255" fill="1" layer="-1.00" shape="2761.186923,3990.139759 2766.533528,3997.326961 2779.268213,3987.987067 2773.921608,3980.799866 2761.186923,3990.139759"/>
    <poly id="527289289" type="unknown" color="51,128,255" fill="1" layer="-1.00" shape="2756.191969,3983.152989 2760.850111,3988.955104 2773.665066,3978.797134 2769.006882,3973.006080 2756.191969,3983.152989"/>
    <poly id="527289290" type="unknown" color="51,128,255" fill="1" layer="-1.00" shape="2755.163860,3981.313149 2768.718933,3970.582972 2763.699162,3964.314962 2750.144089,3975.045137 2755.163860,3981.313149"/>
    <poly id="527289291" type="unknown" color="51,128,255" fill="1" layer="-1.00" shape="2724.519597,3962.780341 2730.767083,3970.535075 2744.543283,3959.584577 2738.295797,3951.829846 2724.519597,3962.780341"/>
    <poly id="527289292" type="unknown" color="51,128,255" fill="1" layer="-1.00" shape="2729.639105,3937.706646 2735.088912,3946.674805 2744.924734,3940.774166 2739.485939,3931.806051 2729.639105,3937.706646"/>
    <poly id="527289293" type="unknown" color="51,128,255" fill="1" layer="-1.00" shape="2719.320541,3931.794058 2723.425993,3938.113819 2741.930580,3926.219535 2737.825085,3919.910835 2719.320541,3931.794058"/>
    <poly id="527289294" type="unknown" color="51,128,255" fill="1" layer="-1.00" shape="2714.053041,3918.424996 2718.638558,3925.907852 2727.668741,3920.435400 2723.083223,3912.952545 2714.053041,3918.424996"/>
    <poly id="527289295" type="unknown" color="51,128,255" fill="1" layer="-1.00" shape="2703.459229,3909.658030 2710.330785,3904.188252 2706.067158,3898.896390 2699.195645,3904.355108 2703.459229,3909.658030"/>
    <poly id="527289296" type="unknown" color="51,128,255" fill="1" layer="-1.00" shape="2689.283665,3907.180950 2693.483501,3914.717608 2701.032762,3910.566524 2696.832926,3903.029867 2689.283665,3907.180950"/>
    <poly id="527289297" type="unknown" color="51,128,255" fill="1" layer="-1.00" shape="2706.532751,3895.281803 2713.147735,3890.651536 2710.431295,3886.825516 2703.816310,3891.455783 2706.532751,3895.281803"/>
    <poly id="527289298" type="unknown" color="51,128,255" fill="1" layer="-1.00" shape="2695.380540,3897.007955 2698.249059,3901.376473 2706.021976,3896.352572 2703.153500,3891.972995 2695.380540,3897.007955"/>
    <poly id="527289299" type="unknown" color="51,128,255" fill="1" layer="-1.00" shape="2698.423432,3893.348087 2709.378156,3885.759730 2706.563327,3881.745319 2695.597634,3889.322573 2698.423432,3893.348087"/>
    <poly id="527289300" type="unknown" color="51,128,255" fill="1" layer="-1.00" shape="2686.639761,3904.527498 2695.445942,3900.016343 2692.811365,3894.963056 2684.016198,3899.474253 2686.639761,3904.527498"/>
    <poly id="527289301" type="unknown" color="51,128,255" fill="1" layer="-1.00" shape="2667.119806,3891.467992 2658.077010,3880.351405 2649.636462,3887.131135 2658.679301,3898.236664 2667.119806,3891.467992"/>
    <poly id="527289302" type="unknown" color="51,128,255" fill="1" layer="-1.00" shape="2684.957889,3881.042031 2694.569747,3876.091635 2688.972652,3865.353404 2679.349782,3870.303756 2684.957889,3881.042031"/>
    <poly id="527289303" type="unknown" color="51,128,255" fill="1" layer="-1.00" shape="2673.005774,3859.053890 2676.833087,3866.091433 2685.783551,3861.293300 2681.956237,3854.255757 2673.005774,3859.053890"/>
    <poly id="527289304" type="unknown" color="51,128,255" fill="1" layer="-1.00" shape="2663.126301,3853.519007 2666.833671,3860.246424 2677.417824,3854.492482 2673.710453,3847.765066 2663.126301,3853.519007"/>
    <poly id="527289305" type="unknown" color="51,128,255" fill="1" layer="-1.00" shape="2669.584213,3846.797926 2673.756431,3844.436390 2669.435592,3836.866080 2665.252404,3839.216513 2669.584213,3846.797926"/>
    <poly id="527289306" type="unknown" color="51,128,255" fill="1" layer="-1.00" shape="2668.328454,3846.859400 2663.552636,3840.172067 2657.821070,3844.197497 2662.596844,3850.895890 2668.328454,3846.859400"/>
    <poly id="527289308" type="unknown" color="51,128,255" fill="1" layer="-1.00" shape="2658.314027,3856.209834 2652.529677,3845.481927 2641.912869,3851.136203 2647.697218,3861.864111 2658.314027,3856.209834"/>
    <poly id="527289309" type="unknown" color="51,128,255" fill="1" layer="-1.00" shape="2655.961671,3835.221161 2659.113214,3840.442352 2669.633262,3834.179434 2666.470706,3828.958202 2655.961671,3835.221161"/>
    <poly id="527289311" type="unknown" color="51,128,255" fill="1" layer="-1.00" shape="2650.309963,3827.203303 2654.290379,3834.517927 2667.026351,3827.677481 2663.034964,3820.351755 2650.309963,3827.203303"/>
    <poly id="527289312" type="unknown" color="51,128,255" fill="1" layer="-1.00" shape="2648.551376,3823.458416 2658.704643,3820.887888 2656.448128,3812.075898 2646.294863,3814.646425 2648.551376,3823.458416"/>
    <poly id="527289314" type="unknown" color="51,128,255" fill="1" layer="-1.00" shape="2641.155569,3824.966908 2645.742032,3823.701858 2643.699805,3816.427946 2639.113344,3817.692996 2641.155569,3824.966908"/>
    <poly id="527289316" type="unknown" color="51,128,255" fill="1" layer="-1.00" shape="2631.503987,3820.306588 2633.871656,3826.022403 2639.199569,3823.842313 2636.831900,3818.126498 2631.503987,3820.306588"/>
    <poly id="527289317" type="unknown" color="51,128,255" fill="1" layer="-1.00" shape="2627.857825,3826.164911 2623.791788,3809.714951 2613.826303,3812.142430 2617.892337,3828.592391 2627.857825,3826.164911"/>
    <poly id="527289319" type="unknown" color="51,128,255" fill="1" layer="-1.00" shape="2643.496784,3811.992369 2640.653737,3803.908013 2633.231735,3806.489155 2636.074781,3814.573513 2643.496784,3811.992369"/>
    <poly id="527289320" type="unknown" color="51,128,255" fill="1" layer="-1.00" shape="2646.602494,3812.004444 2654.588015,3808.949939 2651.055137,3799.834384 2643.069617,3802.888889 2646.602494,3812.004444"/>
    <poly id="527289321" type="unknown" color="51,128,255" fill="1" layer="-1.00" shape="2630.915474,3798.882397 2642.299501,3797.013396 2640.749897,3787.673305 2629.365872,3789.542305 2630.915474,3798.882397"/>
    <poly id="527289322" type="unknown" color="51,128,255" fill="1" layer="-1.00" shape="2665.663450,3753.309324 2667.988671,3764.278148 2698.520439,3757.871831 2696.184199,3746.902967 2665.663450,3753.309324"/>
    <poly id="527289323" type="unknown" color="51,128,255" fill="1" layer="-1.00" shape="2682.732423,3731.069032 2685.592380,3740.469510 2696.453130,3737.216050 2693.604185,3727.815615 2682.732423,3731.069032"/>
    <poly id="527289324" type="unknown" color="51,128,255" fill="1" layer="-1.00" shape="2652.689830,3727.800332 2655.551371,3736.791625 2683.206539,3728.095919 2680.344993,3719.104628 2652.689830,3727.800332"/>
    <poly id="527289325" type="unknown" color="51,128,255" fill="1" layer="-1.00" shape="2647.577854,3711.268892 2658.150540,3708.456695 2656.098598,3700.850964 2645.525870,3703.674220 2647.577854,3711.268892"/>
    <poly id="527289326" type="unknown" color="51,128,255" fill="1" layer="-1.00" shape="2631.187733,3711.868721 2643.532976,3709.207191 2641.996202,3702.233844 2629.661974,3704.895416 2631.187733,3711.868721"/>
    <poly id="527289327" type="unknown" color="51,128,255" fill="1" layer="-1.00" shape="2638.478479,3717.548384 2648.161125,3714.212939 2646.712503,3710.060062 2637.029815,3713.406565 2638.478479,3717.548384"/>
    <poly id="527289328" type="unknown" color="51,128,255" fill="1" layer="-1.00" shape="2577.129106,3786.861876 2584.048603,3800.215272 2593.450651,3795.407855 2586.531152,3782.054461 2577.129106,3786.861876"/>
    <poly id="527289329" type="unknown" color="51,128,255" fill="1" layer="-1.00" shape="2568.083216,3776.552580 2574.345057,3786.264904 2583.972486,3780.142306 2577.710643,3770.429984 2568.083216,3776.552580"/>
    <poly id="527289330" type="unknown" color="51,128,255" fill="1" layer="-1.00" shape="2573.589272,3768.213149 2565.947779,3756.438424 2557.843780,3761.637960 2565.474302,3773.401585 2573.589272,3768.213149"/>
    <poly id="527289331" type="unknown" color="51,128,255" fill="1" layer="-1.00" shape="2579.126734,3765.956466 2571.655814,3752.799991 2567.792739,3754.963651 2575.274671,3768.120170 2579.126734,3765.956466"/>
    <poly id="527289332" type="unknown" color="51,128,255" fill="1" layer="-1.00" shape="2586.167487,3759.458850 2581.115374,3750.193607 2573.158077,3754.486851 2578.221246,3763.741080 2586.167487,3759.458850"/>
    <poly id="527289333" type="unknown" color="51,128,255" fill="1" layer="-1.00" shape="2599.922733,3756.725398 2604.828710,3763.921977 2612.745951,3758.600055 2607.840017,3751.392417 2599.922733,3756.725398"/>
    <poly id="527289334" type="unknown" color="51,128,255" fill="1" layer="-1.00" shape="2609.911606,3751.112931 2613.798823,3756.901013 2621.726774,3751.656546 2617.828586,3745.857363 2609.911606,3751.112931"/>
    <poly id="527289335" type="unknown" color="51,128,255" fill="1" layer="-1.00" shape="2619.973569,3746.529263 2623.377412,3752.005804 2629.449176,3748.291363 2626.045332,3742.814823 2619.973569,3746.529263"/>
    <poly id="527289336" type="unknown" color="51,128,255" fill="1" layer="-1.00" shape="2618.801140,3744.987458 2628.408036,3741.308884 2626.358078,3736.025616 2616.751227,3739.693131 2618.801140,3744.987458"/>
    <poly id="527289337" type="unknown" color="51,128,255" fill="1" layer="-1.00" shape="2607.873391,3742.810513 2610.994675,3747.312736 2617.068160,3743.155931 2613.946875,3738.653709 2607.873391,3742.810513"/>
    <poly id="527289338" type="unknown" color="51,128,255" fill="1" layer="-1.00" shape="2595.745690,3749.000806 2599.247703,3754.721036 2608.642124,3749.039901 2605.140110,3743.319672 2595.745690,3749.000806"/>
    <poly id="527289339" type="unknown" color="51,128,255" fill="1" layer="-1.00" shape="2584.713706,3753.801882 2589.037144,3760.697596 2597.184502,3755.675173 2592.861106,3748.768401 2584.713706,3753.801882"/>
    <poly id="527289340" type="unknown" color="51,128,255" fill="1" layer="-1.00" shape="2582.079496,3748.660111 2584.423878,3751.865374 2589.901797,3747.927442 2587.557458,3744.711120 2582.079496,3748.660111"/>
    <poly id="527289341" type="unknown" color="51,128,255" fill="1" layer="-1.00" shape="2597.228333,3747.237080 2607.218022,3741.414490 2604.428036,3736.681310 2594.427291,3742.514915 2597.228333,3747.237080"/>
    <poly id="527289342" type="unknown" color="51,128,255" fill="1" layer="-1.00" shape="2605.509173,3736.209963 2608.374789,3741.319455 2614.147219,3738.112581 2611.281603,3733.003090 2605.509173,3736.209963"/>
    <poly id="527289343" type="unknown" color="51,128,255" fill="1" layer="-1.00" shape="2617.094397,3739.241034 2625.673281,3733.700496 2621.896197,3727.912843 2613.306300,3733.453337 2617.094397,3739.241034"/>
    <poly id="527289344" type="unknown" color="51,128,255" fill="1" layer="-1.00" shape="2600.937632,3722.312735 2604.376964,3729.990221 2613.103453,3726.142336 2609.664119,3718.464851 2600.937632,3722.312735"/>
    <poly id="527289345" type="unknown" color="51,128,255" fill="1" layer="-1.00" shape="2592.679941,3738.714772 2599.951838,3735.082418 2595.623754,3726.549907 2588.351815,3730.193319 2592.679941,3738.714772"/>
    <poly id="527289346" type="unknown" color="51,128,255" fill="1" layer="-1.00" shape="2570.676243,3738.485416 2575.842700,3746.667293 2588.130267,3739.017797 2582.963809,3730.835922 2570.676243,3738.485416"/>
    <poly id="527289347" type="unknown" color="51,128,255" fill="1" layer="-1.00" shape="2565.976300,3749.106203 2572.049489,3745.026818 2567.931992,3738.983470 2561.858803,3743.062855 2565.976300,3749.106203"/>
    <poly id="527289348" type="unknown" color="51,128,255" fill="1" layer="-1.00" shape="2563.320970,3749.394476 2553.863951,3731.530057 2544.450509,3736.436954 2553.907527,3754.301375 2563.320970,3749.394476"/>
    <poly id="527289349" type="unknown" color="51,128,255" fill="1" layer="-1.00" shape="2590.519335,3725.070224 2584.505211,3713.965390 2577.541339,3717.687414 2583.555463,3728.792248 2590.519335,3725.070224"/>
    <poly id="527289350" type="unknown" color="51,128,255" fill="1" layer="-1.00" shape="2591.558011,3724.189518 2606.001089,3717.333614 2599.992382,3704.835330 2585.549307,3711.691231 2591.558011,3724.189518"/>
    <poly id="527775975" type="unknown" color="51,128,255" fill="0" layer="-1.00" shape="2744.977621,3309.375911 2755.813489,3340.826495 2761.397413,3346.433155 2790.366666,3342.431686 2828.549271,3322.629061 2835.580500,3335.562599 2856.989700,3378.202010 2873.451510,3398.803097 2882.270644,3407.939165 2899.581201,3439.702377 2938.425601,3518.927260 2961.710423,3566.428896 2972.538590,3594.251899 2969.509607,3614.202190 2964.149292,3624.743022 3004.607766,3705.312226"/>
    <poly id="530135858" type="unknown" color="51,128,255" fill="1" layer="-1.00" shape="3478.994766,3787.484825 3485.804616,3783.695717 3482.107469,3777.145380 3475.297619,3780.934487 3478.994766,3787.484825"/>
    <poly id="530135859" type="unknown" color="51,128,255" fill="1" layer="-1.00" shape="3138.820251,3812.057296 3144.296398,3808.561668 3140.650802,3802.929414 3135.174612,3806.436101 3138.820251,3812.057296"/>
    <poly id="530135860" type="unknown" color="51,128,255" fill="1" layer="-1.00" shape="3130.754001,3816.062671 3137.044564,3812.713971 3132.889368,3805.011652 3126.598806,3808.360352 3130.754001,3816.062671"/>
    <poly id="530135861" type="unknown" color="51,128,255" fill="1" layer="-1.00" shape="3120.620109,3819.330116 3128.322927,3815.323333 3124.704118,3808.463600 3117.001300,3812.470381 3120.620109,3819.330116"/>
    <poly id="530135862" type="unknown" color="51,128,255" fill="1" layer="-1.00" shape="3131.486718,3959.460348 3136.744633,3955.444084 3133.566716,3951.328768 3128.308801,3955.345032 3131.486718,3959.460348"/>