<?xml version="1.0" encoding="UTF-8"?>

<!-- generated on Sun Feb 23 07:34:01 2020 by Eclipse SUMO duarouter Version 1.4.0
<configuration xmlns:xsi="http://www.w3.org/2001/XMLSchema-instance" xsi:noNamespaceSchemaLocation="http://sumo.dlr.de/xsd/duarouterConfiguration.xsd">

    <input>
        <net-file value="coba.net.xml"/>
        <route-files value="trips.trips.xml"/>
    </input>

    <output>
        <output-file value="coba.rou.xml"/>
        <alternatives-output value="coba.rou.alt.xml"/>
    </output>

    <time>
        <begin value="0"/>
        <end value="70.0"/>
    </time>

    <report>
        <no-warnings value="true"/>
        <ignore-errors value="true"/>
        <no-step-log value="true"/>
    </report>

</configuration>
-->

<routes xmlns:xsi="http://www.w3.org/2001/XMLSchema-instance" xsi:noNamespaceSchemaLocation="http://sumo.dlr.de/xsd/routes_file.xsd">
    <vehicle id="0" depart="0.00">
        <route edges="-527775636#1 527775636#1 -451798721#1 -527775624#0"/>
    </vehicle>
    <vehicle id="1" depart="1.00">
        <route edges="-527775635 530144832#1 530144832#2 530144831 527775636#0 527775636#1 451798721#2"/>
    </vehicle>
    <vehicle id="2" depart="2.00">
        <route edges="527775636#0 -527775634"/>
    </vehicle>
    <vehicle id="3" depart="3.00">
        <route edges="527775636#1 -527775636#1 -527775636#0 -530144831 -530144832#2 530144832#2 530144831 527775636#0"/>
    </vehicle>
    <vehicle id="4" depart="4.00">
        <route edges="-527775634 -530144829 530144829 527775634 -527775636#0 -530144831 -530144832#2"/>
    </vehicle>
    <vehicle id="5" depart="5.00">
        <route edges="-527775624#1 -527775624#0 -530144828 -530144830 530144832#2 530144831 527775636#0"/>
    </vehicle>
    <vehicle id="6" depart="6.00">
        <route edges="527775636#1 -451798721#1 527775624#1"/>
    </vehicle>
    <vehicle id="7" depart="7.00">
        <route edges="-451798721#2 -527775636#1 -527775636#0"/>
    </vehicle>
    <vehicle id="8" depart="8.00">
        <route edges="-527775636#1 527775636#1 -451798721#1 -527775624#0"/>
    </vehicle>
    <vehicle id="9" depart="9.00">
        <route edges="527775636#0 527775636#1 451798721#2"/>
    </vehicle>
    <vehicle id="10" depart="10.00">
        <route edges="530144832#0 530144832#1 530144830 530144828 527775624#0"/>
    </vehicle>
    <vehicle id="11" depart="11.00">
        <route edges="527775624#0"/>
    </vehicle>
    <vehicle id="12" depart="12.00">
        <route edges="527775634 527775636#1 451798721#2"/>
    </vehicle>
    <vehicle id="13" depart="13.00">
        <route edges="527775636#1 -527775636#1 -527775636#0"/>
    </vehicle>
    <vehicle id="14" depart="14.00">
        <route edges="-527775624#0 -530144828 530144829 527775634 527775636#1 -451798721#1"/>
    </vehicle>
    <vehicle id="15" depart="15.00">
        <route edges="-527775624#0 -530144828 -530144830 530144832#2"/>
    </vehicle>
    <vehicle id="16" depart="16.00">
        <route edges="527775624#0 451798721#1"/>
    </vehicle>
    <vehicle id="17" depart="17.00">
        <route edges="-451798721#1 451798721#1 -527775636#1 527775636#1"/>
    </vehicle>
    <vehicle id="18" depart="18.00">
        <route edges="527775636#1 -451798721#1 527775624#1"/>
    </vehicle>
    <vehicle id="19" depart="19.00">
        <route edges="-527775636#0 -530144831 -530144832#2 530144830 530144828 527775624#0 527775624#1"/>
    </vehicle>
    <vehicle id="20" depart="20.00">
        <route edges="-527775636#1 527775636#1 -451798721#1 -527775624#0"/>
    </vehicle>
    <vehicle id="21" depart="21.00">
        <route edges="-527775636#1 527775636#1 -451798721#1"/>
    </vehicle>
    <vehicle id="22" depart="22.00">
        <route edges="-527775624#0 -530144828 530144829 527775634 527775636#1 451798721#2"/>
    </vehicle>
    <vehicle id="23" depart="23.00">
        <route edges="-451798721#1 451798721#1"/>
    </vehicle>
    <vehicle id="24" depart="24.00">
        <route edges="527775636#1 -527775636#1 -527775636#0 -530144831 -530144832#2 530144830 530144829 527775634"/>
    </vehicle>
    <vehicle id="25" depart="25.00">
        <route edges="-451798721#1 451798721#1 -527775636#1 -527775634"/>
    </vehicle>
    <vehicle id="26" depart="26.00">
        <route edges="-527775636#1 -527775636#0 -530144831 -530144832#2 530144830 530144828 527775624#0"/>
    </vehicle>
    <vehicle id="27" depart="27.00">
        <route edges="530144830 530144829 527775634 -527775634"/>
    </vehicle>
    <vehicle id="28" depart="28.00">
        <route edges="-527775636#1 -527775636#0 -530144831 -530144832#2 530144830 530144828 527775624#0"/>
    </vehicle>
    <vehicle id="29" depart="29.00">
        <route edges="-451798721#1 451798721#1 -527775636#1 527775636#1"/>
    </vehicle>
    <vehicle id="30" depart="30.00">
        <route edges="-527775634 -530144829 530144829 527775634 -527775636#0 -530144831"/>
    </vehicle>
    <vehicle id="31" depart="31.00">
        <route edges="527775636#1 -451798721#1 451798721#1"/>
    </vehicle>
    <vehicle id="32" depart="32.00">
        <route edges="527775624#0 451798721#1 -527775636#1 527775636#1"/>
    </vehicle>
    <vehicle id="33" depart="33.00">
        <route edges="527775634 -527775636#0 -530144831"/>
    </vehicle>
    <vehicle id="34" depart="34.00">
        <route edges="-527775636#1 527775636#1 451798721#2"/>
    </vehicle>
    <vehicle id="35" depart="35.00">
        <route edges="527775624#0 527775624#1"/>
    </vehicle>
    <vehicle id="36" depart="36.00">
        <route edges="527775634 527775636#1"/>
    </vehicle>
    <vehicle id="37" depart="37.00">
        <route edges="527775624#0 -527775624#0"/>
    </vehicle>
    <vehicle id="38" depart="38.00">
        <route edges="-527775624#0"/>
    </vehicle>
    <vehicle id="39" depart="39.00">
        <route edges="527775636#1 -527775636#1 -527775636#0 -530144831 -530144832#2 -530144832#1"/>
    </vehicle>
    <vehicle id="40" depart="40.00">
        <route edges="-527775624#1 451798721#1 -451798721#1"/>
    </vehicle>
    <vehicle id="41" depart="41.00">
        <route edges="-527775636#1 -527775636#0 -530144831 -530144832#2 530144830 530144829 527775634"/>
    </vehicle>
    <vehicle id="42" depart="42.00">
        <route edges="-527775624#0 -530144828 530144828 527775624#0"/>
    </vehicle>
    <vehicle id="43" depart="43.00">
        <route edges="-527775636#1 527775636#1 -451798721#1 -527775624#0"/>
    </vehicle>
    <vehicle id="44" depart="44.00">
        <route edges="-527775636#1 -527775636#0"/>
    </vehicle>
    <vehicle id="45" depart="45.00">
        <route edges="530144832#1 530144830 530144829 527775634"/>
    </vehicle>
    <vehicle id="46" depart="46.00">
        <route edges="-451798721#1 -527775624#0 -530144828 -530144830 530144832#2 530144831 527775636#0"/>
    </vehicle>
    <vehicle id="47" depart="47.00">
        <route edges="-527775624#0"/>
    </vehicle>
    <vehicle id="48" depart="48.00">
        <route edges="-451798721#1 451798721#1"/>
    </vehicle>
    <vehicle id="49" depart="49.00">
        <route edges="527775636#1 -527775636#1 -527775636#0 -530144831 -530144832#2 530144830 530144828 527775624#0"/>
    </vehicle>
    <vehicle id="50" depart="50.00">
        <route edges="527775636#1 -527775636#1 -527775636#0 -530144831 -530144832#2"/>
    </vehicle>
    <vehicle id="51" depart="51.00">
        <route edges="530144832#0 530144832#1 530144832#2 530144831 527775636#0 -527775634"/>
    </vehicle>
    <vehicle id="52" depart="52.00">
        <route edges="-527775624#0"/>
    </vehicle>
    <vehicle id="53" depart="53.00">
        <route edges="527775624#0 451798721#1 -527775636#1"/>
    </vehicle>
    <vehicle id="54" depart="54.00">
        <route edges="-451798721#1 -527775624#0 -530144828 530144828 527775624#0"/>
    </vehicle>
    <vehicle id="55" depart="55.00">
        <route edges="527775636#1"/>
    </vehicle>
    <vehicle id="56" depart="56.00">
        <route edges="-527775624#0 -530144828 530144828 527775624#0 451798721#1"/>
    </vehicle>
    <vehicle id="57" depart="57.00">
        <route edges="451798721#1 -527775636#1 -527775636#0 -530144831 -530144832#2 530144830 530144828 527775624#0"/>
    </vehicle>
    <vehicle id="58" depart="58.00">
        <route edges="-527775634 -530144829 -530144830 530144830 530144828 527775624#0 451798721#1"/>
    </vehicle>
    <vehicle id="59" depart="59.00">
        <route edges="527775636#1 -527775636#1 -527775636#0"/>
    </vehicle>
    <vehicle id="60" depart="60.00">
        <route edges="-527775624#0"/>
    </vehicle>
    <vehicle id="61" depart="61.00">
        <route edges="-527775624#0 -530144828 530144829 527775634 527775636#1 451798721#2"/>
    </vehicle>
    <vehicle id="62" depart="62.00">
        <route edges="-527775634 -530144829 -530144830 530144830 530144828 527775624#0 451798721#1"/>
    </vehicle>
    <vehicle id="63" depart="63.00">
        <route edges="-527775624#1 -527775624#0"/>
    </vehicle>
    <vehicle id="64" depart="64.00">
        <route edges="-527775624#0 -530144828 530144828 527775624#0 527775624#1"/>
    </vehicle>
    <vehicle id="65" depart="65.00">
        <route edges="527775634 527775636#1 -527775636#1"/>
    </vehicle>
    <vehicle id="66" depart="66.00">
        <route edges="-527775624#1 451798721#1 451798721#2"/>
    </vehicle>
    <vehicle id="67" depart="67.00">
        <route edges="530144832#0 530144832#1 530144832#2 530144831 527775636#0 527775636#1 451798721#2"/>
    </vehicle>
    <vehicle id="68" depart="68.00">
        <route edges="-530144832#1 530144832#1 530144832#2 530144831 527775636#0 527775636#1 451798721#2"/>
    </vehicle>
    <vehicle id="69" depart="69.00">
        <route edges="527775624#0 -527775624#0 -530144828 -530144830 -530144832#1"/>
    </vehicle>
</routes>
