<?xml version="1.0" encoding="UTF-8"?>

<!-- generated on Thu Mar 12 18:27:21 2020 by Eclipse SUMO duarouter Version 1.4.0
<configuration xmlns:xsi="http://www.w3.org/2001/XMLSchema-instance" xsi:noNamespaceSchemaLocation="http://sumo.dlr.de/xsd/duarouterConfiguration.xsd">

    <input>
        <net-file value="osmfiles/netfiles/sebudi_edit2.net.xml"/>
        <additional-files value="osmfiles/netfiles/type.add.xml"/>
        <route-files value="trips.trips.xml"/>
    </input>

    <output>
        <output-file value="osmfiles/roufiles/50.rou.xml"/>
        <alternatives-output value="osmfiles/roufiles/50.rou.alt.xml"/>
    </output>

    <time>
        <begin value="0"/>
        <end value="1.0"/>
    </time>

    <report>
        <no-warnings value="true"/>
        <ignore-errors value="true"/>
        <no-step-log value="true"/>
    </report>

</configuration>
-->

<routes xmlns:xsi="http://www.w3.org/2001/XMLSchema-instance" xsi:noNamespaceSchemaLocation="http://sumo.dlr.de/xsd/routes_file.xsd">
    <vType id="myType" maxSpeed="7.00" vClass="passenger"/>
    <vehicle id="0" type="myType" depart="0.00">
        <route edges="gneE20 -gneE23 527775828#4 -527775824 -gneE22"/>
    </vehicle>
    <vehicle id="1" type="myType" depart="0.02">
        <route edges="451798708#2 -527775828#4 gneE23 -gneE20 -gneE19"/>
    </vehicle>
    <vehicle id="2" type="myType" depart="0.04">
        <route edges="527775828#4 -527775828#4 -527775828#3 -527775828#2 527775828#2"/>
    </vehicle>
    <vehicle id="3" type="myType" depart="0.06">
        <route edges="701166839 -gneE26 -gneE25 -gneE24 -527775826#1 -527775826#0"/>
    </vehicle>
    <vehicle id="4" type="myType" depart="0.08">
        <route edges="-gneE21 -gneE20 -gneE19 -527775828#2 gneE24 gneE25"/>
    </vehicle>
    <vehicle id="5" type="myType" depart="0.10">
        <route edges="527775828#4 -527775828#4 701166839 -gneE26"/>
    </vehicle>
    <vehicle id="6" type="myType" depart="0.12">
        <route edges="gneE21 gneE22"/>
    </vehicle>
    <vehicle id="7" type="myType" depart="0.14">
        <route edges="-527775824 210617558#1 527775826#0 -gneE18"/>
    </vehicle>
    <vehicle id="8" type="myType" depart="0.16">
        <route edges="-527775824"/>
    </vehicle>
    <vehicle id="9" type="myType" depart="0.18">
        <route edges="-gneE20 -gneE19 527775828#3 527775828#4 -527775824"/>
    </vehicle>
    <vehicle id="10" type="myType" depart="0.20">
        <route edges="-gneE19 527775828#3 527775828#4 -527775824"/>
    </vehicle>
    <vehicle id="11" type="myType" depart="0.22">
        <route edges="210617558#1 527775826#0 527775826#1 527775828#2 527775828#3 701166839 -gneE26 -gneE25 -gneE24"/>
    </vehicle>
    <vehicle id="12" type="myType" depart="0.24">
        <route edges="-gneE24 527775828#2 gneE19"/>
    </vehicle>
    <vehicle id="13" type="myType" depart="0.26">
        <route edges="-gneE20 -gneE19 -527775828#2"/>
    </vehicle>
    <vehicle id="14" type="myType" depart="0.28">
        <route edges="-gneE22 -gneE21 -gneE23"/>
    </vehicle>
    <vehicle id="15" type="myType" depart="0.30">
        <route edges="gneE22 527775824 -527775824"/>
    </vehicle>
    <vehicle id="16" type="myType" depart="0.32">
        <route edges="-527775826#0 527775826#0 527775826#1 527775828#2 gneE19"/>
    </vehicle>
    <vehicle id="17" type="myType" depart="0.34">
        <route edges="-gneE26 -gneE25 -gneE24 -527775826#1 -gneE18"/>
    </vehicle>
    <vehicle id="18" type="myType" depart="0.36">
        <route edges="527775824 -451798708#2"/>
    </vehicle>
    <vehicle id="19" type="myType" depart="0.38">
        <route edges="gneE18 527775826#1 527775828#2 527775828#3 527775828#4 -527775824"/>
    </vehicle>
    <vehicle id="20" type="myType" depart="0.40">
        <route edges="-527775826#0 527775826#0 527775826#1 527775828#2 527775828#3 527775828#4 -527775824"/>
    </vehicle>
    <vehicle id="21" type="myType" depart="0.42">
        <route edges="210617558#1 527775826#0 527775826#1 527775828#2 527775828#3 527775828#4 -527775824"/>
    </vehicle>
    <vehicle id="22" type="myType" depart="0.44">
        <route edges="gneE21 gneE22 527775824 -527775828#4 701166839 -gneE26 -gneE25 -gneE24"/>
    </vehicle>
    <vehicle id="23" type="myType" depart="0.46">
        <route edges="-527775828#2 527775828#2 527775828#3 527775828#4 -527775824"/>
    </vehicle>
    <vehicle id="24" type="myType" depart="0.48">
        <route edges="-451798708#2 451798708#2 -527775824"/>
    </vehicle>
    <vehicle id="25" type="myType" depart="0.50">
        <route edges="-gneE23 -527775828#3 -527775828#2 -527775826#1 -527775826#0 -210617558#1"/>
    </vehicle>
    <vehicle id="26" type="myType" depart="0.52">
        <route edges="-210617558#1 210617558#1 527775826#0 -gneE18"/>
    </vehicle>
    <vehicle id="27" type="myType" depart="0.54">
        <route edges="-gneE22 -gneE21 -gneE23 527775828#4 -527775828#4"/>
    </vehicle>
    <vehicle id="28" type="myType" depart="0.56">
        <route edges="210617558#1 -210617558#1 -gneE22 -gneE21 -gneE23"/>
    </vehicle>
    <vehicle id="29" type="myType" depart="0.58">
        <route edges="-gneE24 527775828#2 gneE19 gneE20 gneE21 gneE22 210617558#1"/>
    </vehicle>
    <vehicle id="30" type="myType" depart="0.60">
        <route edges="701166831 -701166831 -701166830#0"/>
    </vehicle>
    <vehicle id="31" type="myType" depart="0.62">
        <route edges="-527775828#2"/>
    </vehicle>
    <vehicle id="32" type="myType" depart="0.64">
        <route edges="-527775828#3 gneE19"/>
    </vehicle>
    <vehicle id="33" type="myType" depart="0.66">
        <route edges="210617558#1 527775826#0 527775826#1 -527775826#1"/>
    </vehicle>
    <vehicle id="34" type="myType" depart="0.68">
        <route edges="gneE19 gneE20 -gneE23 -527775828#3 -527775828#2 527775828#2"/>
    </vehicle>
    <vehicle id="35" type="myType" depart="0.70">
        <route edges="210617558#1 527775826#0 527775826#1 527775828#2 gneE19 gneE20"/>
    </vehicle>
    <vehicle id="36" type="myType" depart="0.72">
        <route edges="451798708#2"/>
    </vehicle>
    <vehicle id="37" type="myType" depart="0.74">
        <route edges="gneE25 gneE26 -701166839 527775828#4 -527775824 -gneE22"/>
    </vehicle>
    <vehicle id="38" type="myType" depart="0.76">
        <route edges="gneE22 527775824 -527775828#4 701166839 -gneE26 -gneE25"/>
    </vehicle>
    <vehicle id="39" type="myType" depart="0.78">
        <route edges="527775824 -527775828#4 -527775828#3 -527775828#2 -527775826#1"/>
    </vehicle>
    <vehicle id="40" type="myType" depart="0.80">
        <route edges="-gneE24 527775828#2 527775828#3 527775828#4 -527775824"/>
    </vehicle>
    <vehicle id="41" type="myType" depart="0.82">
        <route edges="210617558#1 527775826#0 527775826#1 527775828#2 527775828#3 527775828#4 -527775824"/>
    </vehicle>
    <vehicle id="42" type="myType" depart="0.84">
        <route edges="527775828#2 gneE19 gneE20 gneE21"/>
    </vehicle>
    <vehicle id="43" type="myType" depart="0.86">
        <route edges="-gneE23 -527775828#3 -527775828#2 -527775826#1 -gneE18"/>
    </vehicle>
    <vehicle id="44" type="myType" depart="0.88">
        <route edges="gneE22 210617558#1 527775826#0 -gneE18"/>
    </vehicle>
    <vehicle id="45" type="myType" depart="0.90">
        <route edges="-gneE23 527775828#4 -527775824"/>
    </vehicle>
    <vehicle id="46" type="myType" depart="0.92">
        <route edges="-gneE26"/>
    </vehicle>
    <vehicle id="47" type="myType" depart="0.94">
        <route edges="-527775828#4 527775828#4 -527775824 -gneE22 -gneE21"/>
    </vehicle>
    <vehicle id="48" type="myType" depart="0.96">
        <route edges="527775824 -527775828#4 -527775828#3 gneE19"/>
    </vehicle>
    <vehicle id="49" type="myType" depart="0.98">
        <route edges="gneE21 gneE22 527775824"/>
    </vehicle>
</routes>
