<?xml version="1.0" encoding="UTF-8"?>

<!-- generated on Tue Apr 28 23:12:25 2020 by Eclipse SUMO netconvert Version 1.5.0
<configuration xmlns:xsi="http://www.w3.org/2001/XMLSchema-instance" xsi:noNamespaceSchemaLocation="http://sumo.dlr.de/xsd/netconvertConfiguration.xsd">

    <input>
        <osm-files value="astungkara_1.osm"/>
    </input>

    <output>
        <output-file value="astungkara.net.xml"/>
    </output>

    <projection>
        <proj.utm value="true"/>
    </projection>

    <report>
        <aggregate-warnings value="5"/>
    </report>

</configuration>
-->

<net version="1.3" junctionCornerDetail="5" limitTurnSpeed="5.50" xmlns:xsi="http://www.w3.org/2001/XMLSchema-instance" xsi:noNamespaceSchemaLocation="http://sumo.dlr.de/xsd/net_file.xsd">

    <location netOffset="-331212.88,928234.30" convBoundary="0.00,0.00,664.48,780.19" origBoundary="115.462269,-8.395525,115.501639,-8.341677" projParameter="+proj=utm +zone=50 +ellps=WGS84 +datum=WGS84 +units=m +no_defs"/>

    <type id="highway.bridleway" priority="1" numLanes="1" speed="2.78" allow="pedestrian" oneway="1" width="2.00"/>
    <type id="highway.bus_guideway" priority="1" numLanes="1" speed="27.78" allow="bus" oneway="1"/>
    <type id="highway.cycleway" priority="1" numLanes="1" speed="8.33" allow="bicycle" oneway="0" width="1.00"/>
    <type id="highway.footway" priority="1" numLanes="1" speed="2.78" allow="pedestrian" oneway="1" width="2.00"/>
    <type id="highway.ford" priority="1" numLanes="1" speed="2.78" allow="army" oneway="0"/>
    <type id="highway.living_street" priority="2" numLanes="1" speed="2.78" disallow="tram rail_urban rail rail_electric rail_fast ship" oneway="0"/>
    <type id="highway.motorway" priority="14" numLanes="2" speed="39.44" allow="private emergency authority army vip passenger hov taxi bus coach delivery truck trailer motorcycle evehicle custom1 custom2" oneway="1"/>
    <type id="highway.motorway_link" priority="9" numLanes="1" speed="22.22" allow="private emergency authority army vip passenger hov taxi bus coach delivery truck trailer motorcycle evehicle custom1 custom2" oneway="1"/>
    <type id="highway.path" priority="1" numLanes="1" speed="2.78" allow="pedestrian bicycle" oneway="1" width="2.00"/>
    <type id="highway.pedestrian" priority="1" numLanes="1" speed="2.78" allow="pedestrian" oneway="1" width="2.00"/>
    <type id="highway.primary" priority="12" numLanes="2" speed="27.78" disallow="tram rail_urban rail rail_electric rail_fast ship" oneway="0"/>
    <type id="highway.primary_link" priority="7" numLanes="1" speed="22.22" disallow="tram rail_urban rail rail_electric rail_fast ship" oneway="0"/>
    <type id="highway.raceway" priority="15" numLanes="2" speed="83.33" allow="vip" oneway="0"/>
    <type id="highway.residential" priority="3" numLanes="1" speed="13.89" disallow="tram rail_urban rail rail_electric rail_fast ship" oneway="0"/>
    <type id="highway.secondary" priority="11" numLanes="1" speed="27.78" disallow="tram rail_urban rail rail_electric rail_fast ship" oneway="0"/>
    <type id="highway.secondary_link" priority="6" numLanes="1" speed="22.22" disallow="tram rail_urban rail rail_electric rail_fast ship" oneway="0"/>
    <type id="highway.service" priority="1" numLanes="1" speed="5.56" allow="pedestrian delivery bicycle" oneway="0"/>
    <type id="highway.stairs" priority="1" numLanes="1" speed="1.39" allow="pedestrian" oneway="1" width="2.00"/>
    <type id="highway.step" priority="1" numLanes="1" speed="1.39" allow="pedestrian" oneway="1" width="2.00"/>
    <type id="highway.steps" priority="1" numLanes="1" speed="1.39" allow="pedestrian" oneway="1" width="2.00"/>
    <type id="highway.tertiary" priority="10" numLanes="1" speed="22.22" disallow="tram rail_urban rail rail_electric rail_fast ship" oneway="0"/>
    <type id="highway.tertiary_link" priority="5" numLanes="1" speed="22.22" disallow="tram rail_urban rail rail_electric rail_fast ship" oneway="0"/>
    <type id="highway.track" priority="1" numLanes="1" speed="5.56" disallow="tram rail_urban rail rail_electric rail_fast ship" oneway="0"/>
    <type id="highway.trunk" priority="13" numLanes="2" speed="27.78" disallow="pedestrian bicycle tram rail_urban rail rail_electric rail_fast ship" oneway="0"/>
    <type id="highway.trunk_link" priority="8" numLanes="1" speed="22.22" disallow="pedestrian bicycle tram rail_urban rail rail_electric rail_fast ship" oneway="0"/>
    <type id="highway.unclassified" priority="4" numLanes="1" speed="13.89" disallow="tram rail_urban rail rail_electric rail_fast ship" oneway="0"/>
    <type id="highway.unsurfaced" priority="1" numLanes="1" speed="8.33" disallow="tram rail_urban rail rail_electric rail_fast ship" oneway="0"/>
    <type id="railway.highspeed" priority="21" numLanes="1" speed="69.44" allow="rail_fast" oneway="1"/>
    <type id="railway.light_rail" priority="19" numLanes="1" speed="27.78" allow="rail_urban" oneway="1"/>
    <type id="railway.preserved" priority="16" numLanes="1" speed="27.78" allow="rail" oneway="1"/>
    <type id="railway.rail" priority="20" numLanes="1" speed="44.44" allow="rail" oneway="1"/>
    <type id="railway.subway" priority="18" numLanes="1" speed="27.78" allow="rail_urban" oneway="1"/>
    <type id="railway.tram" priority="17" numLanes="1" speed="13.89" allow="tram" oneway="1"/>

    <edge id=":-102007_0" function="internal">
        <lane id=":-102007_0_0" index="0" disallow="tram rail_urban rail rail_electric rail_fast ship" speed="5.56" length="9.09" shape="357.07,267.57 356.46,265.02 355.22,263.55 353.33,263.15 350.80,263.83"/>
    </edge>
    <edge id=":-102007_1" function="internal">
        <lane id=":-102007_1_0" index="0" disallow="tram rail_urban rail rail_electric rail_fast ship" speed="5.56" length="15.21" shape="357.07,267.57 356.42,263.84 355.18,260.22 353.43,256.82 351.19,253.77"/>
    </edge>
    <edge id=":-102007_2" function="internal">
        <lane id=":-102007_2_0" index="0" disallow="tram rail_urban rail rail_electric rail_fast ship" speed="5.56" length="14.88" shape="357.07,267.57 357.12,263.22 358.13,259.70 360.12,256.99 363.09,255.11"/>
    </edge>
    <edge id=":-102007_3" function="internal">
        <lane id=":-102007_3_0" index="0" disallow="tram rail_urban rail rail_electric rail_fast ship" speed="3.65" length="4.67" shape="357.07,267.57 357.76,266.30 358.52,265.83 359.35,266.15 360.26,267.27"/>
    </edge>
    <edge id=":-102007_4" function="internal">
        <lane id=":-102007_4_0" index="0" disallow="tram rail_urban rail rail_electric rail_fast ship" speed="5.56" length="10.82" shape="364.34,258.06 362.30,259.39 360.94,261.37 360.26,264.00 360.26,267.27"/>
    </edge>
    <edge id=":-102007_5" function="internal">
        <lane id=":-102007_5_0" index="0" disallow="tram rail_urban rail rail_electric rail_fast ship" speed="5.56" length="14.72" shape="364.34,258.06 350.80,263.83"/>
    </edge>
    <edge id=":-102007_6" function="internal">
        <lane id=":-102007_6_0" index="0" disallow="tram rail_urban rail rail_electric rail_fast ship" speed="5.56" length="14.88" shape="364.34,258.06 360.93,258.89 357.60,258.46 354.36,256.75 351.19,253.77"/>
    </edge>
    <edge id=":-102007_7" function="internal">
        <lane id=":-102007_7_0" index="0" disallow="tram rail_urban rail rail_electric rail_fast ship" speed="3.65" length="4.67" shape="364.34,258.06 362.92,257.79 362.24,257.21 362.30,256.32 363.09,255.11"/>
    </edge>
    <edge id=":-102007_8" function="internal">
        <lane id=":-102007_8_0" index="0" disallow="tram rail_urban rail rail_electric rail_fast ship" speed="5.56" length="10.82" shape="353.61,251.68 355.98,253.94 358.34,255.27 360.71,255.66 363.09,255.11"/>
    </edge>
    <edge id=":-102007_9" function="internal">
        <lane id=":-102007_9_0" index="0" disallow="tram rail_urban rail rail_electric rail_fast ship" speed="5.56" length="17.15" shape="353.61,251.68 355.97,255.01 357.99,259.03 359.48,263.27 360.26,267.27"/>
    </edge>
    <edge id=":-102007_10" function="internal">
        <lane id=":-102007_10_0" index="0" disallow="tram rail_urban rail rail_electric rail_fast ship" speed="5.56" length="15.53" shape="353.61,251.68 356.03,255.44 356.37,258.72 354.63,261.52 350.80,263.83"/>
    </edge>
    <edge id=":-102007_11" function="internal">
        <lane id=":-102007_11_0" index="0" disallow="tram rail_urban rail rail_electric rail_fast ship" speed="3.65" length="4.67" shape="353.61,251.68 353.79,253.11 353.45,253.94 352.58,254.16 351.19,253.77"/>
    </edge>
    <edge id=":-102007_12" function="internal">
        <lane id=":-102007_12_0" index="0" disallow="tram rail_urban rail rail_electric rail_fast ship" speed="5.56" length="9.09" shape="349.55,260.89 351.78,259.53 352.81,257.89 352.61,255.97 351.19,253.77"/>
    </edge>
    <edge id=":-102007_13" function="internal">
        <lane id=":-102007_13_0" index="0" disallow="tram rail_urban rail rail_electric rail_fast ship" speed="5.56" length="14.72" shape="349.55,260.89 363.09,255.11"/>
    </edge>
    <edge id=":-102007_14" function="internal">
        <lane id=":-102007_14_0" index="0" disallow="tram rail_urban rail rail_electric rail_fast ship" speed="5.56" length="15.53" shape="349.55,260.89 353.86,259.73 357.09,260.41 359.22,262.92 360.26,267.27"/>
    </edge>
    <edge id=":-102007_15" function="internal">
        <lane id=":-102007_15_0" index="0" disallow="tram rail_urban rail rail_electric rail_fast ship" speed="3.65" length="4.67" shape="349.55,260.89 350.96,261.15 351.64,261.73 351.59,262.62 350.80,263.83"/>
    </edge>
    <edge id=":-102010_0" function="internal">
        <lane id=":-102010_0_0" index="0" disallow="tram rail_urban rail rail_electric rail_fast ship" speed="5.56" length="9.08" shape="295.39,115.02 295.01,112.45 293.90,110.86 292.06,110.25 289.48,110.64"/>
    </edge>
    <edge id=":-102010_1" function="internal">
        <lane id=":-102010_1_0" index="0" disallow="tram rail_urban rail rail_electric rail_fast ship" speed="5.56" length="15.19" shape="295.39,115.02 295.28,111.24 294.99,107.44 294.49,103.66 293.77,99.95"/>
    </edge>
    <edge id=":-102010_2" function="internal">
        <lane id=":-102010_2_0" index="0" disallow="tram rail_urban rail rail_electric rail_fast ship" speed="5.56" length="15.56" shape="295.39,115.02 295.89,110.72 297.43,107.33 300.00,104.86 303.61,103.29"/>
    </edge>
    <edge id=":-102010_3" function="internal">
        <lane id=":-102010_3_0" index="0" disallow="tram rail_urban rail rail_electric rail_fast ship" speed="3.65" length="4.67" shape="295.39,115.02 296.18,113.82 296.98,113.42 297.78,113.81 298.59,115.01"/>
    </edge>
    <edge id=":-102010_4" function="internal">
        <lane id=":-102010_4_0" index="0" disallow="tram rail_urban rail rail_electric rail_fast ship" speed="5.56" length="11.33" shape="304.45,106.38 301.87,107.51 300.04,109.33 298.94,111.83 298.59,115.01"/>
    </edge>
    <edge id=":-102010_5" function="internal">
        <lane id=":-102010_5_0" index="0" disallow="tram rail_urban rail rail_electric rail_fast ship" speed="5.56" length="15.56" shape="304.45,106.38 289.48,110.64"/>
    </edge>
    <edge id=":-102010_6" function="internal">
        <lane id=":-102010_6_0" index="0" disallow="tram rail_urban rail rail_electric rail_fast ship" speed="5.56" length="14.34" shape="304.45,106.38 300.52,106.85 297.44,105.94 295.18,103.64 293.77,99.95"/>
    </edge>
    <edge id=":-102010_7" function="internal">
        <lane id=":-102010_7_0" index="0" disallow="tram rail_urban rail rail_electric rail_fast ship" speed="3.65" length="4.67" shape="304.45,106.38 303.08,105.92 302.49,105.25 302.66,104.37 303.61,103.29"/>
    </edge>
    <edge id=":-102010_8" function="internal">
        <lane id=":-102010_8_0" index="0" disallow="tram rail_urban rail rail_electric rail_fast ship" speed="5.56" length="9.04" shape="296.89,99.24 297.78,101.56 299.20,103.01 301.14,103.59 303.61,103.29"/>
    </edge>
    <edge id=":-102010_9" function="internal">
        <lane id=":-102010_9_0" index="0" disallow="tram rail_urban rail rail_electric rail_fast ship" speed="5.56" length="15.89" shape="296.89,99.24 297.62,103.06 298.15,107.08 298.47,111.12 298.59,115.01"/>
    </edge>
    <edge id=":-102010_10" function="internal">
        <lane id=":-102010_10_0" index="0" disallow="tram rail_urban rail rail_electric rail_fast ship" speed="5.56" length="15.27" shape="296.89,99.24 297.16,103.18 296.02,106.39 293.46,108.88 289.48,110.64"/>
    </edge>
    <edge id=":-102010_11" function="internal">
        <lane id=":-102010_11_0" index="0" disallow="tram rail_urban rail rail_electric rail_fast ship" speed="3.65" length="4.67" shape="296.89,99.24 296.37,100.59 295.68,101.16 294.81,100.94 293.77,99.95"/>
    </edge>
    <edge id=":-102010_12" function="internal">
        <lane id=":-102010_12_0" index="0" disallow="tram rail_urban rail rail_electric rail_fast ship" speed="5.56" length="10.36" shape="288.57,107.57 291.33,106.37 293.11,104.70 293.93,102.56 293.77,99.95"/>
    </edge>
    <edge id=":-102010_13" function="internal">
        <lane id=":-102010_13_0" index="0" disallow="tram rail_urban rail rail_electric rail_fast ship" speed="5.56" length="15.65" shape="288.57,107.57 303.61,103.29"/>
    </edge>
    <edge id=":-102010_14" function="internal">
        <lane id=":-102010_14_0" index="0" disallow="tram rail_urban rail rail_electric rail_fast ship" speed="5.56" length="15.41" shape="288.57,107.57 292.94,106.92 296.06,107.94 297.95,110.64 298.59,115.01"/>
    </edge>
    <edge id=":-102010_15" function="internal">
        <lane id=":-102010_15_0" index="0" disallow="tram rail_urban rail rail_electric rail_fast ship" speed="3.65" length="4.67" shape="288.57,107.57 289.95,108.00 290.56,108.65 290.40,109.53 289.48,110.64"/>
    </edge>
    <edge id=":-102013_0" function="internal">
        <lane id=":-102013_0_0" index="0" disallow="tram rail_urban rail rail_electric rail_fast ship" speed="5.56" length="9.07" shape="415.28,66.97 414.80,64.43 413.62,62.87 411.76,62.29 409.21,62.69"/>
    </edge>
    <edge id=":-102013_1" function="internal">
        <lane id=":-102013_1_0" index="0" disallow="tram rail_urban rail rail_electric rail_fast ship" speed="5.56" length="14.61" shape="415.28,66.97 414.61,52.37"/>
    </edge>
    <edge id=":-102013_2" function="internal">
        <lane id=":-102013_2_0" index="0" disallow="tram rail_urban rail rail_electric rail_fast ship" speed="3.65" length="4.67" shape="415.28,66.97 416.03,65.73 416.81,65.30 417.63,65.66 418.48,66.82"/>
    </edge>
    <edge id=":-102013_3" function="internal">
        <lane id=":-102013_3_0" index="0" disallow="tram rail_urban rail rail_electric rail_fast ship" speed="5.56" length="14.61" shape="417.81,52.23 418.48,66.82"/>
    </edge>
    <edge id=":-102013_4" function="internal">
        <lane id=":-102013_4_0" index="0" disallow="tram rail_urban rail rail_electric rail_fast ship" speed="5.56" length="14.71" shape="417.81,52.23 417.40,55.77 415.84,58.70 413.10,61.01 409.21,62.69"/>
    </edge>
    <edge id=":-102013_5" function="internal">
        <lane id=":-102013_5_0" index="0" disallow="tram rail_urban rail rail_electric rail_fast ship" speed="3.65" length="4.67" shape="417.81,52.23 417.06,53.46 416.28,53.90 415.47,53.54 414.61,52.37"/>
    </edge>
    <edge id=":-102013_6" function="internal">
        <lane id=":-102013_6_0" index="0" disallow="tram rail_urban rail rail_electric rail_fast ship" speed="5.56" length="10.46" shape="408.27,59.64 411.13,58.42 413.15,56.81 414.30,54.79 414.61,52.37"/>
    </edge>
    <edge id=":-102013_7" function="internal">
        <lane id=":-102013_7_0" index="0" disallow="tram rail_urban rail rail_electric rail_fast ship" speed="5.56" length="15.25" shape="408.27,59.64 412.56,58.96 415.69,59.93 417.67,62.55 418.48,66.82"/>
    </edge>
    <edge id=":-102013_8" function="internal">
        <lane id=":-102013_8_0" index="0" disallow="tram rail_urban rail rail_electric rail_fast ship" speed="3.65" length="4.67" shape="408.27,59.64 409.65,60.05 410.27,60.69 410.12,61.58 409.21,62.69"/>
    </edge>
    <edge id=":-102015_0" function="internal">
        <lane id=":-102015_0_0" index="0" disallow="tram rail_urban rail rail_electric rail_fast ship" speed="5.56" length="15.92" shape="594.02,687.62 590.47,689.21 586.68,690.67 582.82,691.97 579.09,693.10"/>
    </edge>
    <edge id=":-102015_1" function="internal">
        <lane id=":-102015_1_0" index="0" disallow="tram rail_urban rail rail_electric rail_fast ship" speed="5.56" length="15.75" shape="594.02,687.62 590.63,688.59 587.15,688.21 583.59,686.48 579.95,683.40"/>
    </edge>
    <edge id=":-102015_2" function="internal">
        <lane id=":-102015_2_0" index="0" disallow="tram rail_urban rail rail_electric rail_fast ship" speed="3.65" length="4.67" shape="594.02,687.62 592.59,687.43 591.88,686.89 591.88,686.00 592.61,684.75"/>
    </edge>
    <edge id=":-102015_3" function="internal">
        <lane id=":-102015_3_0" index="0" disallow="tram rail_urban rail rail_electric rail_fast ship" speed="5.56" length="11.73" shape="582.24,681.16 585.04,683.59 587.70,684.99 590.22,685.38 592.61,684.75"/>
    </edge>
    <edge id=":-102015_4" function="internal">
        <lane id=":-102015_4_0" index="0" disallow="tram rail_urban rail rail_electric rail_fast ship" speed="5.56" length="16.60" shape="582.24,681.16 585.20,685.14 585.67,688.45 583.63,691.10 579.09,693.10"/>
    </edge>
    <edge id=":-102015_5" function="internal">
        <lane id=":-102015_5_0" index="0" disallow="tram rail_urban rail rail_electric rail_fast ship" speed="3.65" length="4.67" shape="582.24,681.16 582.51,682.58 582.22,683.43 581.36,683.70 579.95,683.40"/>
    </edge>
    <edge id=":-102015_6" function="internal">
        <lane id=":-102015_6_0" index="0" disallow="tram rail_urban rail rail_electric rail_fast ship" speed="5.56" length="9.21" shape="578.21,690.02 580.72,688.92 581.85,687.44 581.60,685.61 579.95,683.40"/>
    </edge>
    <edge id=":-102015_7" function="internal">
        <lane id=":-102015_7_0" index="0" disallow="tram rail_urban rail rail_electric rail_fast ship" speed="5.56" length="15.36" shape="578.21,690.02 581.85,688.93 585.53,687.69 589.14,686.31 592.61,684.75"/>
    </edge>
    <edge id=":-102015_8" function="internal">
        <lane id=":-102015_8_0" index="0" disallow="tram rail_urban rail rail_electric rail_fast ship" speed="3.65" length="4.67" shape="578.21,690.02 579.58,690.46 580.19,691.12 580.02,692.00 579.09,693.10"/>
    </edge>
    <edge id=":-102026_0" function="internal">
        <lane id=":-102026_0_0" index="0" disallow="tram rail_urban rail rail_electric rail_fast ship" speed="5.56" length="19.53" shape="495.08,573.96 492.56,570.41 490.59,565.50 489.27,560.28 488.68,555.82"/>
    </edge>
    <edge id=":-102026_1" function="internal">
        <lane id=":-102026_1_0" index="0" disallow="tram rail_urban rail rail_electric rail_fast ship" speed="5.56" length="18.53" shape="495.08,573.96 492.86,570.78 492.51,566.96 494.04,562.51 497.44,557.43"/>
    </edge>
    <edge id=":-102026_2" function="internal">
        <lane id=":-102026_2_0" index="0" disallow="tram rail_urban rail rail_electric rail_fast ship" speed="3.65" length="4.67" shape="495.08,573.96 494.73,572.56 494.97,571.70 495.80,571.37 497.23,571.59"/>
    </edge>
    <edge id=":-102026_3" function="internal">
        <lane id=":-102026_3_0" index="0" disallow="tram rail_urban rail rail_electric rail_fast ship" speed="5.56" length="13.66" shape="499.94,559.43 497.22,563.36 495.87,566.70 495.87,569.44 497.23,571.59"/>
    </edge>
    <edge id=":-102026_4" function="internal">
        <lane id=":-102026_4_0" index="0" disallow="tram rail_urban rail rail_electric rail_fast ship" speed="5.56" length="20.06" shape="499.94,559.43 495.35,564.04 491.95,564.97 489.72,562.23 488.68,555.82"/>
    </edge>
    <edge id=":-102026_5" function="internal">
        <lane id=":-102026_5_0" index="0" disallow="tram rail_urban rail rail_electric rail_fast ship" speed="3.65" length="4.67" shape="499.94,559.43 498.56,559.86 497.69,559.68 497.32,558.86 497.44,557.43"/>
    </edge>
    <edge id=":-102026_6" function="internal">
        <lane id=":-102026_6_0" index="0" disallow="tram rail_urban rail rail_electric rail_fast ship" speed="5.46" length="9.92" shape="491.87,555.64 492.39,558.81 493.49,560.17 495.18,559.71 497.44,557.43"/>
    </edge>
    <edge id=":-102026_7" function="internal">
        <lane id=":-102026_7_0" index="0" disallow="tram rail_urban rail rail_electric rail_fast ship" speed="5.56" length="17.15" shape="491.87,555.64 492.31,559.76 493.27,564.23 494.87,568.38 497.23,571.59"/>
    </edge>
    <edge id=":-102026_8" function="internal">
        <lane id=":-102026_8_0" index="0" disallow="tram rail_urban rail rail_electric rail_fast ship" speed="3.65" length="4.67" shape="491.87,555.64 491.14,556.88 490.36,557.32 489.54,556.97 488.68,555.82"/>
    </edge>
    <edge id=":-102030_0" function="internal">
        <lane id=":-102030_0_0" index="0" disallow="tram rail_urban rail rail_electric rail_fast ship" speed="5.56" length="12.02" shape="411.51,461.47 409.29,459.22 406.79,457.72 404.00,456.95 400.94,456.92"/>
    </edge>
    <edge id=":-102030_1" function="internal">
        <lane id=":-102030_1_0" index="0" disallow="tram rail_urban rail rail_electric rail_fast ship" speed="5.56" length="16.93" shape="411.51,461.47 409.31,458.08 407.45,454.08 406.04,449.88 405.19,445.92"/>
    </edge>
    <edge id=":-102030_2" function="internal">
        <lane id=":-102030_2_0" index="0" disallow="tram rail_urban rail rail_electric rail_fast ship" speed="5.56" length="15.72" shape="411.51,461.47 409.53,457.91 409.41,454.55 411.15,451.38 414.75,448.40"/>
    </edge>
    <edge id=":-102030_3" function="internal">
        <lane id=":-102030_3_0" index="0" disallow="tram rail_urban rail rail_electric rail_fast ship" speed="3.65" length="4.67" shape="411.51,461.47 411.39,460.03 411.76,459.22 412.64,459.03 414.01,459.47"/>
    </edge>
    <edge id=":-102030_4" function="internal">
        <lane id=":-102030_4_0" index="0" disallow="tram rail_urban rail rail_electric rail_fast ship" speed="5.56" length="10.17" shape="416.47,451.09 414.04,453.06 412.82,455.12 412.81,457.25 414.01,459.47"/>
    </edge>
    <edge id=":-102030_5" function="internal">
        <lane id=":-102030_5_0" index="0" disallow="tram rail_urban rail rail_electric rail_fast ship" speed="5.56" length="16.70" shape="416.47,451.09 412.96,453.06 408.99,454.82 404.87,456.17 400.94,456.92"/>
    </edge>
    <edge id=":-102030_6" function="internal">
        <lane id=":-102030_6_0" index="0" disallow="tram rail_urban rail rail_electric rail_fast ship" speed="5.56" length="16.16" shape="416.47,451.09 412.14,453.07 408.82,452.87 406.51,450.49 405.19,445.92"/>
    </edge>
    <edge id=":-102030_7" function="internal">
        <lane id=":-102030_7_0" index="0" disallow="tram rail_urban rail rail_electric rail_fast ship" speed="3.65" length="4.67" shape="416.47,451.09 415.02,451.06 414.26,450.60 414.16,449.71 414.75,448.40"/>
    </edge>
    <edge id=":-102030_8" function="internal">
        <lane id=":-102030_8_0" index="0" disallow="tram rail_urban rail rail_electric rail_fast ship" speed="5.56" length="9.15" shape="408.36,445.46 409.11,448.05 410.42,449.40 412.30,449.52 414.75,448.40"/>
    </edge>
    <edge id=":-102030_9" function="internal">
        <lane id=":-102030_9_0" index="0" disallow="tram rail_urban rail rail_electric rail_fast ship" speed="5.56" length="15.27" shape="408.36,445.46 409.11,449.19 410.28,452.86 411.91,456.33 414.01,459.47"/>
    </edge>
    <edge id=":-102030_10" function="internal">
        <lane id=":-102030_10_0" index="0" disallow="tram rail_urban rail rail_electric rail_fast ship" speed="5.56" length="15.67" shape="408.36,445.46 408.46,450.12 407.26,453.58 404.75,455.85 400.94,456.92"/>
    </edge>
    <edge id=":-102030_11" function="internal">
        <lane id=":-102030_11_0" index="0" disallow="tram rail_urban rail rail_electric rail_fast ship" speed="3.65" length="4.67" shape="408.36,445.46 407.74,446.76 407.01,447.27 406.16,446.99 405.19,445.92"/>
    </edge>
    <edge id=":-102030_12" function="internal">
        <lane id=":-102030_12_0" index="0" disallow="tram rail_urban rail rail_electric rail_fast ship" speed="5.56" length="10.38" shape="400.60,453.74 403.00,453.03 404.56,451.49 405.30,449.11 405.19,445.92"/>
    </edge>
    <edge id=":-102030_13" function="internal">
        <lane id=":-102030_13_0" index="0" disallow="tram rail_urban rail rail_electric rail_fast ship" speed="5.56" length="15.24" shape="400.60,453.74 404.32,453.06 407.96,451.88 411.46,450.29 414.75,448.40"/>
    </edge>
    <edge id=":-102030_14" function="internal">
        <lane id=":-102030_14_0" index="0" disallow="tram rail_urban rail rail_electric rail_fast ship" speed="5.56" length="15.24" shape="400.60,453.74 404.50,453.77 408.03,454.74 411.20,456.64 414.01,459.47"/>
    </edge>
    <edge id=":-102030_15" function="internal">
        <lane id=":-102030_15_0" index="0" disallow="tram rail_urban rail rail_electric rail_fast ship" speed="3.65" length="4.67" shape="400.60,453.74 401.88,454.41 402.36,455.16 402.05,456.00 400.94,456.92"/>
    </edge>
    <edge id=":-102040_0" function="internal">
        <lane id=":-102040_0_0" index="0" disallow="tram rail_urban rail rail_electric rail_fast ship" speed="5.56" length="9.73" shape="242.47,537.15 240.85,534.75 239.00,533.49 236.93,533.39 234.63,534.42"/>
    </edge>
    <edge id=":-102040_1" function="internal">
        <lane id=":-102040_1_0" index="0" disallow="tram rail_urban rail rail_electric rail_fast ship" speed="9.72" length="15.80" shape="242.47,537.15 240.82,533.64 239.31,529.90 238.04,526.08 237.10,522.33"/>
    </edge>
    <edge id=":-102040_2" function="internal">
        <lane id=":-102040_2_0" index="0" disallow="tram rail_urban rail rail_electric rail_fast ship" speed="5.56" length="6.70" shape="242.47,537.15 241.01,532.88 241.33,530.71"/>
    </edge>
    <edge id=":-102040_3" function="internal">
        <lane id=":-102040_3_0" index="0" disallow="tram rail_urban rail rail_electric rail_fast ship" speed="3.65" length="2.34" shape="242.47,537.15 242.64,535.72 243.17,535.00"/>
    </edge>
    <edge id=":-102040_16" function="internal">
        <lane id=":-102040_16_0" index="0" disallow="tram rail_urban rail rail_electric rail_fast ship" speed="5.56" length="8.92" shape="241.33,530.71 241.49,529.61 243.90,527.35 248.24,526.10"/>
    </edge>
    <edge id=":-102040_17" function="internal">
        <lane id=":-102040_17_0" index="0" disallow="tram rail_urban rail rail_electric rail_fast ship" speed="3.65" length="2.34" shape="243.17,535.00 244.07,535.00 245.32,535.71"/>
    </edge>
    <edge id=":-102040_4" function="internal">
        <lane id=":-102040_4_0" index="0" disallow="tram rail_urban rail rail_electric rail_fast ship" speed="5.56" length="9.10" shape="248.68,529.27 246.16,530.00 244.75,531.32 244.48,533.22 245.32,535.71"/>
    </edge>
    <edge id=":-102040_5" function="internal">
        <lane id=":-102040_5_0" index="0" disallow="tram rail_urban rail rail_electric rail_fast ship" speed="5.56" length="15.08" shape="248.68,529.27 244.98,529.98 241.36,531.07 237.88,532.55 234.63,534.42"/>
    </edge>
    <edge id=":-102040_6" function="internal">
        <lane id=":-102040_6_0" index="0" disallow="tram rail_urban rail rail_electric rail_fast ship" speed="8.45" length="15.18" shape="248.68,529.27 244.25,529.36 240.85,528.23 238.46,525.89 237.10,522.33"/>
    </edge>
    <edge id=":-102040_7" function="internal">
        <lane id=":-102040_7_0" index="0" disallow="tram rail_urban rail rail_electric rail_fast ship" speed="3.65" length="4.67" shape="248.68,529.27 247.38,528.65 246.88,527.91 247.16,527.06 248.24,526.10"/>
    </edge>
    <edge id=":-102040_8" function="internal">
        <lane id=":-102040_8_0" index="0" disallow="tram rail_urban rail rail_electric rail_fast ship" speed="7.05" length="10.25" shape="240.23,521.68 241.15,523.98 242.79,525.48 245.15,526.19 248.24,526.10"/>
    </edge>
    <edge id=":-102040_9" function="internal">
        <lane id=":-102040_9_0" index="0" disallow="tram rail_urban rail rail_electric rail_fast ship" speed="9.72" length="14.96" shape="240.23,521.68 241.13,525.31 242.31,528.86 243.72,532.32 245.32,535.71"/>
    </edge>
    <edge id=":-102040_10" function="internal">
        <lane id=":-102040_10_0" index="0" disallow="tram rail_urban rail rail_electric rail_fast ship" speed="9.64" length="5.49" shape="240.23,521.68 240.49,525.45 240.07,527.12"/>
    </edge>
    <edge id=":-102040_11" function="internal">
        <lane id=":-102040_11_0" index="0" disallow="tram rail_urban rail rail_electric rail_fast ship" speed="3.65" length="2.34" shape="240.23,521.68 239.69,523.02 238.99,523.57"/>
    </edge>
    <edge id=":-102040_18" function="internal">
        <lane id=":-102040_18_0" index="0" disallow="tram rail_urban rail rail_electric rail_fast ship" speed="9.64" length="9.36" shape="240.07,527.12 239.64,528.83 237.69,531.82 234.63,534.42"/>
    </edge>
    <edge id=":-102040_19" function="internal">
        <lane id=":-102040_19_0" index="0" disallow="tram rail_urban rail rail_electric rail_fast ship" speed="3.65" length="2.34" shape="238.99,523.57 238.12,523.34 237.10,522.33"/>
    </edge>
    <edge id=":-102040_12" function="internal">
        <lane id=":-102040_12_0" index="0" disallow="tram rail_urban rail rail_electric rail_fast ship" speed="8.38" length="11.04" shape="232.85,531.76 235.16,529.81 236.63,527.59 237.28,525.09 237.10,522.33"/>
    </edge>
    <edge id=":-102040_13" function="internal">
        <lane id=":-102040_13_0" index="0" disallow="tram rail_urban rail rail_electric rail_fast ship" speed="5.56" length="16.50" shape="232.85,531.76 236.31,529.81 240.25,528.15 244.33,526.89 248.24,526.10"/>
    </edge>