<?xml version="1.0" encoding="UTF-8"?>

<!-- generated on Wed Apr 29 00:03:58 2020 by Eclipse SUMO netconvert Version 1.5.0
<configuration xmlns:xsi="http://www.w3.org/2001/XMLSchema-instance" xsi:noNamespaceSchemaLocation="http://sumo.dlr.de/xsd/netconvertConfiguration.xsd">

    <input>
        <osm-files value="map_neted.osm"/>
    </input>

    <output>
        <output-file value="map_neted.net.xml"/>
    </output>

    <projection>
        <proj.utm value="true"/>
    </projection>

    <report>
        <aggregate-warnings value="5"/>
    </report>

</configuration>
-->

<net version="1.3" junctionCornerDetail="5" limitTurnSpeed="5.50" xmlns:xsi="http://www.w3.org/2001/XMLSchema-instance" xsi:noNamespaceSchemaLocation="http://sumo.dlr.de/xsd/net_file.xsd">

    <location netOffset="-331243.19,935039.27" convBoundary="0.00,0.00,8812.87,7585.16" origBoundary="115.462269,-8.456241,115.547094,-8.341677" projParameter="+proj=utm +zone=50 +ellps=WGS84 +datum=WGS84 +units=m +no_defs"/>

    <type id="highway.bridleway" priority="1" numLanes="1" speed="2.78" allow="pedestrian" oneway="1" width="2.00"/>
    <type id="highway.bus_guideway" priority="1" numLanes="1" speed="27.78" allow="bus" oneway="1"/>
    <type id="highway.cycleway" priority="1" numLanes="1" speed="8.33" allow="bicycle" oneway="0" width="1.00"/>
    <type id="highway.footway" priority="1" numLanes="1" speed="2.78" allow="pedestrian" oneway="1" width="2.00"/>
    <type id="highway.ford" priority="1" numLanes="1" speed="2.78" allow="army" oneway="0"/>
    <type id="highway.living_street" priority="2" numLanes="1" speed="2.78" disallow="tram rail_urban rail rail_electric rail_fast ship" oneway="0"/>
    <type id="highway.motorway" priority="14" numLanes="2" speed="39.44" allow="private emergency authority army vip passenger hov taxi bus coach delivery truck trailer motorcycle evehicle custom1 custom2" oneway="1"/>
    <type id="highway.motorway_link" priority="9" numLanes="1" speed="22.22" allow="private emergency authority army vip passenger hov taxi bus coach delivery truck trailer motorcycle evehicle custom1 custom2" oneway="1"/>
    <type id="highway.path" priority="1" numLanes="1" speed="2.78" allow="pedestrian bicycle" oneway="1" width="2.00"/>
    <type id="highway.pedestrian" priority="1" numLanes="1" speed="2.78" allow="pedestrian" oneway="1" width="2.00"/>
    <type id="highway.primary" priority="12" numLanes="2" speed="27.78" disallow="tram rail_urban rail rail_electric rail_fast ship" oneway="0"/>
    <type id="highway.primary_link" priority="7" numLanes="1" speed="22.22" disallow="tram rail_urban rail rail_electric rail_fast ship" oneway="0"/>
    <type id="highway.raceway" priority="15" numLanes="2" speed="83.33" allow="vip" oneway="0"/>
    <type id="highway.residential" priority="3" numLanes="1" speed="13.89" disallow="tram rail_urban rail rail_electric rail_fast ship" oneway="0"/>
    <type id="highway.secondary" priority="11" numLanes="1" speed="27.78" disallow="tram rail_urban rail rail_electric rail_fast ship" oneway="0"/>
    <type id="highway.secondary_link" priority="6" numLanes="1" speed="22.22" disallow="tram rail_urban rail rail_electric rail_fast ship" oneway="0"/>
    <type id="highway.service" priority="1" numLanes="1" speed="5.56" allow="pedestrian delivery bicycle" oneway="0"/>
    <type id="highway.stairs" priority="1" numLanes="1" speed="1.39" allow="pedestrian" oneway="1" width="2.00"/>
    <type id="highway.step" priority="1" numLanes="1" speed="1.39" allow="pedestrian" oneway="1" width="2.00"/>
    <type id="highway.steps" priority="1" numLanes="1" speed="1.39" allow="pedestrian" oneway="1" width="2.00"/>
    <type id="highway.tertiary" priority="10" numLanes="1" speed="22.22" disallow="tram rail_urban rail rail_electric rail_fast ship" oneway="0"/>
    <type id="highway.tertiary_link" priority="5" numLanes="1" speed="22.22" disallow="tram rail_urban rail rail_electric rail_fast ship" oneway="0"/>
    <type id="highway.track" priority="1" numLanes="1" speed="5.56" disallow="tram rail_urban rail rail_electric rail_fast ship" oneway="0"/>
    <type id="highway.trunk" priority="13" numLanes="2" speed="27.78" disallow="pedestrian bicycle tram rail_urban rail rail_electric rail_fast ship" oneway="0"/>
    <type id="highway.trunk_link" priority="8" numLanes="1" speed="22.22" disallow="pedestrian bicycle tram rail_urban rail rail_electric rail_fast ship" oneway="0"/>
    <type id="highway.unclassified" priority="4" numLanes="1" speed="13.89" disallow="tram rail_urban rail rail_electric rail_fast ship" oneway="0"/>
    <type id="highway.unsurfaced" priority="1" numLanes="1" speed="8.33" disallow="tram rail_urban rail rail_electric rail_fast ship" oneway="0"/>
    <type id="railway.highspeed" priority="21" numLanes="1" speed="69.44" allow="rail_fast" oneway="1"/>
    <type id="railway.light_rail" priority="19" numLanes="1" speed="27.78" allow="rail_urban" oneway="1"/>
    <type id="railway.preserved" priority="16" numLanes="1" speed="27.78" allow="rail" oneway="1"/>
    <type id="railway.rail" priority="20" numLanes="1" speed="44.44" allow="rail" oneway="1"/>
    <type id="railway.subway" priority="18" numLanes="1" speed="27.78" allow="rail_urban" oneway="1"/>
    <type id="railway.tram" priority="17" numLanes="1" speed="13.89" allow="tram" oneway="1"/>

    <edge id=":-101778_0" function="internal">
        <lane id=":-101778_0_0" index="0" disallow="tram rail_urban rail rail_electric rail_fast ship" speed="7.45" length="10.52" shape="53.19,7042.30 51.44,7039.65 49.46,7037.99 47.26,7037.31 44.82,7037.61"/>
    </edge>
    <edge id=":-101778_1" function="internal">
        <lane id=":-101778_1_0" index="0" disallow="tram rail_urban rail rail_electric rail_fast ship" speed="7.55" length="15.57" shape="53.19,7042.30 51.70,7038.07 52.13,7034.80 54.50,7032.50 58.78,7031.16"/>
    </edge>
    <edge id=":-101778_2" function="internal">
        <lane id=":-101778_2_0" index="0" disallow="tram rail_urban rail rail_electric rail_fast ship" speed="3.65" length="4.67" shape="53.19,7042.30 53.34,7040.87 53.87,7040.15 54.76,7040.13 56.03,7040.83"/>
    </edge>
    <edge id=":-101778_3" function="internal">
        <lane id=":-101778_3_0" index="0" disallow="tram rail_urban rail rail_electric rail_fast ship" speed="5.93" length="9.10" shape="59.29,7034.32 56.79,7035.10 55.41,7036.44 55.16,7038.35 56.03,7040.83"/>
    </edge>
    <edge id=":-101778_4" function="internal">
        <lane id=":-101778_4_0" index="0" disallow="tram rail_urban rail rail_electric rail_fast ship" speed="22.22" length="14.85" shape="59.29,7034.32 55.62,7034.96 52.00,7035.71 48.40,7036.58 44.82,7037.61"/>
    </edge>
    <edge id=":-101778_5" function="internal">
        <lane id=":-101778_5_0" index="0" disallow="tram rail_urban rail rail_electric rail_fast ship" speed="3.65" length="2.34" shape="59.29,7034.32 57.98,7033.72 57.46,7033.00"/>
    </edge>
    <edge id=":-101778_9" function="internal">
        <lane id=":-101778_9_0" index="0" disallow="tram rail_urban rail rail_electric rail_fast ship" speed="3.65" length="2.34" shape="57.46,7033.00 57.73,7032.14 58.78,7031.16"/>
    </edge>
    <edge id=":-101778_6" function="internal">
        <lane id=":-101778_6_0" index="0" disallow="tram rail_urban rail rail_electric rail_fast ship" speed="22.22" length="15.31" shape="43.87,7034.56 47.52,7033.51 51.26,7032.60 55.04,7031.82 58.78,7031.16"/>
    </edge>
    <edge id=":-101778_7" function="internal">
        <lane id=":-101778_7_0" index="0" disallow="tram rail_urban rail rail_electric rail_fast ship" speed="8.80" length="5.89" shape="43.87,7034.56 47.50,7034.05 49.64,7034.63"/>
    </edge>
    <edge id=":-101778_8" function="internal">
        <lane id=":-101778_8_0" index="0" disallow="tram rail_urban rail rail_electric rail_fast ship" speed="3.65" length="2.34" shape="43.87,7034.56 45.25,7034.96 45.87,7035.61"/>
    </edge>
    <edge id=":-101778_10" function="internal">
        <lane id=":-101778_10_0" index="0" disallow="tram rail_urban rail rail_electric rail_fast ship" speed="8.80" length="9.15" shape="49.64,7034.63 50.74,7034.93 53.58,7037.19 56.03,7040.83"/>
    </edge>
    <edge id=":-101778_11" function="internal">
        <lane id=":-101778_11_0" index="0" disallow="tram rail_urban rail rail_electric rail_fast ship" speed="3.65" length="2.34" shape="45.87,7035.61 45.73,7036.49 44.82,7037.61"/>
    </edge>
    <edge id=":-101784_0" function="internal">
        <lane id=":-101784_0_0" index="0" disallow="tram rail_urban rail rail_electric rail_fast ship" speed="5.56" length="14.35" shape="458.80,7409.19 452.47,7396.31"/>
    </edge>
    <edge id=":-101784_1" function="internal">
        <lane id=":-101784_1_0" index="0" disallow="tram rail_urban rail rail_electric rail_fast ship" speed="5.56" length="14.61" shape="458.80,7409.19 457.87,7405.79 458.20,7402.50 459.79,7399.30 462.64,7396.21"/>
    </edge>
    <edge id=":-101784_2" function="internal">
        <lane id=":-101784_2_0" index="0" disallow="tram rail_urban rail rail_electric rail_fast ship" speed="3.65" length="4.67" shape="458.80,7409.19 459.03,7407.76 459.59,7407.07 460.49,7407.10 461.71,7407.87"/>
    </edge>
    <edge id=":-101784_3" function="internal">
        <lane id=":-101784_3_0" index="0" disallow="tram rail_urban rail rail_electric rail_fast ship" speed="5.56" length="10.49" shape="464.75,7398.62 462.62,7400.89 461.40,7403.19 461.10,7405.52 461.71,7407.87"/>
    </edge>
    <edge id=":-101784_4" function="internal">
        <lane id=":-101784_4_0" index="0" disallow="tram rail_urban rail rail_electric rail_fast ship" speed="5.56" length="15.18" shape="464.75,7398.62 461.13,7400.96 457.88,7401.36 454.99,7399.81 452.47,7396.31"/>
    </edge>
    <edge id=":-101784_5" function="internal">
        <lane id=":-101784_5_0" index="0" disallow="tram rail_urban rail rail_electric rail_fast ship" speed="3.65" length="4.67" shape="464.75,7398.62 463.32,7398.80 462.49,7398.46 462.27,7397.60 462.64,7396.21"/>
    </edge>
    <edge id=":-101784_6" function="internal">
        <lane id=":-101784_6_0" index="0" disallow="tram rail_urban rail rail_electric rail_fast ship" speed="5.56" length="9.07" shape="455.31,7394.83 456.81,7396.92 458.54,7397.85 460.48,7397.61 462.64,7396.21"/>
    </edge>
    <edge id=":-101784_7" function="internal">
        <lane id=":-101784_7_0" index="0" disallow="tram rail_urban rail rail_electric rail_fast ship" speed="5.56" length="14.53" shape="455.31,7394.83 461.71,7407.87"/>
    </edge>
    <edge id=":-101784_8" function="internal">
        <lane id=":-101784_8_0" index="0" disallow="tram rail_urban rail rail_electric rail_fast ship" speed="3.65" length="4.67" shape="455.31,7394.83 455.15,7396.26 454.63,7396.99 453.74,7397.00 452.47,7396.31"/>
    </edge>
    <edge id=":-101785_0" function="internal">
        <lane id=":-101785_0_0" index="0" disallow="tram rail_urban rail rail_electric rail_fast ship" speed="5.56" length="17.28" shape="436.12,7364.99 433.54,7361.98 429.78,7359.53 425.58,7357.56 421.70,7355.98"/>
    </edge>
    <edge id=":-101785_1" function="internal">
        <lane id=":-101785_1_0" index="0" disallow="tram rail_urban rail rail_electric rail_fast ship" speed="5.56" length="18.88" shape="436.12,7364.99 426.43,7348.78"/>
    </edge>
    <edge id=":-101785_2" function="internal">
        <lane id=":-101785_2_0" index="0" disallow="tram rail_urban rail rail_electric rail_fast ship" speed="3.65" length="4.67" shape="436.12,7364.99 436.27,7363.56 436.79,7362.83 437.69,7362.82 438.95,7363.51"/>
    </edge>
    <edge id=":-101785_3" function="internal">
        <lane id=":-101785_3_0" index="0" disallow="tram rail_urban rail rail_electric rail_fast ship" speed="5.56" length="19.13" shape="429.14,7347.08 438.95,7363.51"/>
    </edge>
    <edge id=":-101785_4" function="internal">
        <lane id=":-101785_4_0" index="0" disallow="tram rail_urban rail rail_electric rail_fast ship" speed="5.56" length="21.90" shape="429.14,7347.08 432.41,7353.60 432.26,7357.26 428.69,7358.05 421.70,7355.98"/>
    </edge>
    <edge id=":-101785_5" function="internal">
        <lane id=":-101785_5_0" index="0" disallow="tram rail_urban rail rail_electric rail_fast ship" speed="3.65" length="4.67" shape="429.14,7347.08 429.10,7348.53 428.64,7349.29 427.75,7349.37 426.43,7348.78"/>
    </edge>
    <edge id=":-101785_6" function="internal">
        <lane id=":-101785_6_0" index="0" disallow="tram rail_urban rail rail_electric rail_fast ship" speed="5.46" length="10.41" shape="422.89,7353.01 426.22,7354.00 427.91,7353.62 427.99,7351.88 426.43,7348.78"/>
    </edge>
    <edge id=":-101785_7" function="internal">
        <lane id=":-101785_7_0" index="0" disallow="tram rail_urban rail rail_electric rail_fast ship" speed="5.56" length="19.44" shape="422.89,7353.01 427.03,7354.82 431.79,7357.30 436.12,7360.26 438.95,7363.51"/>
    </edge>
    <edge id=":-101785_8" function="internal">
        <lane id=":-101785_8_0" index="0" disallow="tram rail_urban rail rail_electric rail_fast ship" speed="3.65" length="4.67" shape="422.89,7353.01 423.71,7354.20 423.78,7355.10 423.11,7355.69 421.70,7355.98"/>
    </edge>
    <edge id=":-101787_0" function="internal">
        <lane id=":-101787_0_0" index="0" disallow="tram rail_urban rail rail_electric rail_fast ship" speed="5.56" length="8.91" shape="367.38,7271.15 365.57,7269.43 363.65,7268.37 361.62,7267.97 359.48,7268.23"/>
    </edge>
    <edge id=":-101787_1" function="internal">
        <lane id=":-101787_1_0" index="0" disallow="tram rail_urban rail rail_electric rail_fast ship" speed="5.56" length="12.99" shape="367.38,7271.15 365.49,7268.20 364.89,7265.27 365.59,7262.36 367.58,7259.47"/>
    </edge>
    <edge id=":-101787_2" function="internal">
        <lane id=":-101787_2_0" index="0" disallow="tram rail_urban rail rail_electric rail_fast ship" speed="3.65" length="4.67" shape="367.38,7271.15 367.20,7269.72 367.55,7268.89 368.42,7268.68 369.81,7269.07"/>
    </edge>
    <edge id=":-101787_3" function="internal">
        <lane id=":-101787_3_0" index="0" disallow="tram rail_urban rail rail_electric rail_fast ship" speed="5.56" length="8.27" shape="369.94,7261.64 368.67,7263.47 368.23,7265.32 368.61,7267.19 369.81,7269.07"/>
    </edge>
    <edge id=":-101787_4" function="internal">
        <lane id=":-101787_4_0" index="0" disallow="tram rail_urban rail rail_electric rail_fast ship" speed="5.56" length="12.57" shape="369.94,7261.64 367.56,7264.04 365.25,7265.83 362.68,7267.18 359.48,7268.23"/>
    </edge>
    <edge id=":-101787_5" function="internal">
        <lane id=":-101787_5_0" index="0" disallow="tram rail_urban rail rail_electric rail_fast ship" speed="3.65" length="4.67" shape="369.94,7261.64 368.54,7261.98 367.68,7261.74 367.36,7260.90 367.58,7259.47"/>
    </edge>
    <edge id=":-101787_6" function="internal">
        <lane id=":-101787_6_0" index="0" disallow="tram rail_urban rail rail_electric rail_fast ship" speed="5.56" length="10.80" shape="358.66,7265.13 361.62,7264.23 363.67,7263.21 365.44,7261.73 367.58,7259.47"/>
    </edge>
    <edge id=":-101787_7" function="internal">
        <lane id=":-101787_7_0" index="0" disallow="tram rail_urban rail rail_electric rail_fast ship" speed="5.56" length="12.51" shape="358.66,7265.13 361.74,7264.75 364.62,7265.28 367.31,7266.72 369.81,7269.07"/>
    </edge>
    <edge id=":-101787_8" function="internal">
        <lane id=":-101787_8_0" index="0" disallow="tram rail_urban rail rail_electric rail_fast ship" speed="3.65" length="4.67" shape="358.66,7265.13 360.03,7265.60 360.62,7266.27 360.44,7267.15 359.48,7268.23"/>
    </edge>
    <edge id=":-101788_0" function="internal">
        <lane id=":-101788_0_0" index="0" disallow="tram rail_urban rail rail_electric rail_fast ship" speed="9.72" length="19.59" shape="271.00,7298.46 268.25,7295.04 264.17,7291.64 259.68,7288.68 255.69,7286.57"/>
    </edge>
    <edge id=":-101788_1" function="internal">
        <lane id=":-101788_1_0" index="0" disallow="tram rail_urban rail rail_electric rail_fast ship" speed="13.89" length="21.47" shape="271.00,7298.46 260.82,7279.55"/>
    </edge>
    <edge id=":-101788_2" function="internal">
        <lane id=":-101788_2_0" index="0" disallow="tram rail_urban rail rail_electric rail_fast ship" speed="7.64" length="6.07" shape="271.00,7298.46 269.52,7294.42 269.70,7292.67"/>
    </edge>
    <edge id=":-101788_3" function="internal">
        <lane id=":-101788_3_0" index="0" disallow="tram rail_urban rail rail_electric rail_fast ship" speed="3.65" length="2.34" shape="271.00,7298.46 271.13,7297.03 271.65,7296.30"/>
    </edge>
    <edge id=":-101788_16" function="internal">
        <lane id=":-101788_16_0" index="0" disallow="tram rail_urban rail rail_electric rail_fast ship" speed="7.64" length="9.10" shape="269.70,7292.67 269.85,7291.16 272.00,7288.69 275.97,7287.01"/>
    </edge>
    <edge id=":-101788_17" function="internal">
        <lane id=":-101788_17_0" index="0" disallow="tram rail_urban rail rail_electric rail_fast ship" speed="3.65" length="2.34" shape="271.65,7296.30 272.54,7296.27 273.81,7296.95"/>
    </edge>
    <edge id=":-101788_4" function="internal">
        <lane id=":-101788_4_0" index="0" disallow="tram rail_urban rail rail_electric rail_fast ship" speed="6.06" length="9.07" shape="276.79,7290.10 274.42,7291.10 273.13,7292.58 272.93,7294.53 273.81,7296.95"/>
    </edge>
    <edge id=":-101788_5" function="internal">
        <lane id=":-101788_5_0" index="0" disallow="tram rail_urban rail rail_electric rail_fast ship" speed="5.56" length="21.59" shape="276.79,7290.10 272.09,7290.38 266.14,7289.58 260.23,7288.17 255.69,7286.57"/>
    </edge>
    <edge id=":-101788_6" function="internal">
        <lane id=":-101788_6_0" index="0" disallow="tram rail_urban rail rail_electric rail_fast ship" speed="9.72" length="20.69" shape="276.79,7290.10 272.41,7290.33 268.29,7288.65 264.43,7285.06 260.82,7279.55"/>
    </edge>
    <edge id=":-101788_7" function="internal">
        <lane id=":-101788_7_0" index="0" disallow="tram rail_urban rail rail_electric rail_fast ship" speed="3.65" length="4.67" shape="276.79,7290.10 275.42,7289.63 274.83,7288.96 275.01,7288.09 275.97,7287.01"/>
    </edge>
    <edge id=":-101788_8" function="internal">
        <lane id=":-101788_8_0" index="0" disallow="tram rail_urban rail rail_electric rail_fast ship" speed="9.40" length="16.40" shape="263.64,7278.04 266.57,7282.61 269.60,7285.63 272.73,7287.10 275.97,7287.01"/>
    </edge>
    <edge id=":-101788_9" function="internal">
        <lane id=":-101788_9_0" index="0" disallow="tram rail_urban rail rail_electric rail_fast ship" speed="13.89" length="21.47" shape="263.64,7278.04 273.81,7296.95"/>
    </edge>
    <edge id=":-101788_10" function="internal">
        <lane id=":-101788_10_0" index="0" disallow="tram rail_urban rail rail_electric rail_fast ship" speed="7.57" length="8.66" shape="263.64,7278.04 266.37,7284.56 266.18,7286.14"/>
    </edge>
    <edge id=":-101788_11" function="internal">
        <lane id=":-101788_11_0" index="0" disallow="tram rail_urban rail rail_electric rail_fast ship" speed="3.65" length="2.34" shape="263.64,7278.04 263.51,7279.47 262.99,7280.20"/>
    </edge>
    <edge id=":-101788_18" function="internal">
        <lane id=":-101788_18_0" index="0" disallow="tram rail_urban rail rail_electric rail_fast ship" speed="7.57" length="12.72" shape="266.18,7286.14 265.95,7288.15 262.39,7288.82 255.69,7286.57"/>
    </edge>
    <edge id=":-101788_19" function="internal">
        <lane id=":-101788_19_0" index="0" disallow="tram rail_urban rail rail_electric rail_fast ship" speed="3.65" length="2.34" shape="262.99,7280.20 262.10,7280.23 260.82,7279.55"/>
    </edge>
    <edge id=":-101788_12" function="internal">
        <lane id=":-101788_12_0" index="0" disallow="tram rail_urban rail rail_electric rail_fast ship" speed="5.46" length="10.27" shape="257.01,7283.65 260.22,7284.74 261.93,7284.41 262.13,7282.69 260.82,7279.55"/>
    </edge>
    <edge id=":-101788_13" function="internal">
        <lane id=":-101788_13_0" index="0" disallow="tram rail_urban rail rail_electric rail_fast ship" speed="5.56" length="19.48" shape="257.01,7283.65 261.21,7285.22 266.38,7286.58 271.61,7287.31 275.97,7287.01"/>
    </edge>
    <edge id=":-101788_14" function="internal">
        <lane id=":-101788_14_0" index="0" disallow="tram rail_urban rail rail_electric rail_fast ship" speed="9.72" length="21.62" shape="257.01,7283.65 261.22,7285.98 266.23,7289.42 270.83,7293.30 273.81,7296.95"/>
    </edge>
    <edge id=":-101788_15" function="internal">
        <lane id=":-101788_15_0" index="0" disallow="tram rail_urban rail rail_electric rail_fast ship" speed="3.65" length="4.67" shape="257.01,7283.65 257.77,7284.87 257.81,7285.77 257.12,7286.33 255.69,7286.57"/>
    </edge>
    <edge id=":-101789_0" function="internal">
        <lane id=":-101789_0_0" index="0" disallow="tram rail_urban rail rail_electric rail_fast ship" speed="5.56" length="12.53" shape="410.58,7220.53 407.67,7222.21 405.27,7223.84 403.06,7225.71 400.71,7228.11"/>
    </edge>
    <edge id=":-101789_1" function="internal">
        <lane id=":-101789_1_0" index="0" disallow="tram rail_urban rail rail_electric rail_fast ship" speed="5.56" length="13.79" shape="410.58,7220.53 407.06,7221.85 403.93,7221.75 401.18,7220.25 398.82,7217.33"/>
    </edge>
    <edge id=":-101789_2" function="internal">
        <lane id=":-101789_2_0" index="0" disallow="tram rail_urban rail rail_electric rail_fast ship" speed="3.65" length="4.67" shape="410.58,7220.53 409.15,7220.40 408.41,7219.89 408.38,7219.00 409.05,7217.72"/>
    </edge>
    <edge id=":-101789_3" function="internal">
        <lane id=":-101789_3_0" index="0" disallow="tram rail_urban rail rail_electric rail_fast ship" speed="5.56" length="8.78" shape="401.56,7215.68 403.07,7217.54 404.82,7218.50 406.81,7218.56 409.05,7217.72"/>
    </edge>
    <edge id=":-101789_4" function="internal">
        <lane id=":-101789_4_0" index="0" disallow="tram rail_urban rail rail_electric rail_fast ship" speed="5.56" length="13.48" shape="401.56,7215.68 403.07,7219.07 403.43,7222.27 402.64,7225.29 400.71,7228.11"/>
    </edge>
    <edge id=":-101789_5" function="internal">
        <lane id=":-101789_5_0" index="0" disallow="tram rail_urban rail rail_electric rail_fast ship" speed="3.65" length="4.67" shape="401.56,7215.68 401.49,7217.12 401.01,7217.88 400.12,7217.94 398.82,7217.33"/>
    </edge>
    <edge id=":-101789_6" function="internal">
        <lane id=":-101789_6_0" index="0" disallow="tram rail_urban rail rail_electric rail_fast ship" speed="5.56" length="9.34" shape="398.35,7225.95 399.66,7224.02 400.17,7221.94 399.89,7219.71 398.82,7217.33"/>
    </edge>
    <edge id=":-101789_7" function="internal">
        <lane id=":-101789_7_0" index="0" disallow="tram rail_urban rail rail_electric rail_fast ship" speed="5.56" length="13.57" shape="398.35,7225.95 400.83,7223.45 403.32,7221.35 406.00,7219.50 409.05,7217.72"/>
    </edge>
    <edge id=":-101789_8" function="internal">
        <lane id=":-101789_8_0" index="0" disallow="tram rail_urban rail rail_electric rail_fast ship" speed="3.65" length="4.67" shape="398.35,7225.95 399.75,7225.61 400.61,7225.85 400.93,7226.69 400.71,7228.11"/>
    </edge>
    <edge id=":-101791_0" function="internal">
        <lane id=":-101791_0_0" index="0" disallow="tram rail_urban rail rail_electric rail_fast ship" speed="5.56" length="9.96" shape="312.26,7079.23 310.42,7076.99 308.40,7075.69 306.21,7075.33 303.84,7075.91"/>
    </edge>
    <edge id=":-101791_1" function="internal">
        <lane id=":-101791_1_0" index="0" disallow="tram rail_urban rail rail_electric rail_fast ship" speed="5.56" length="14.88" shape="312.26,7079.23 310.51,7075.43 310.54,7072.17 312.34,7069.45 315.91,7067.28"/>
    </edge>
    <edge id=":-101791_2" function="internal">
        <lane id=":-101791_2_0" index="0" disallow="tram rail_urban rail rail_electric rail_fast ship" speed="3.65" length="4.67" shape="312.26,7079.23 312.28,7077.79 312.73,7077.02 313.62,7076.92 314.94,7077.49"/>
    </edge>
    <edge id=":-101791_3" function="internal">
        <lane id=":-101791_3_0" index="0" disallow="tram rail_urban rail rail_electric rail_fast ship" speed="5.56" length="9.05" shape="317.17,7070.22 315.00,7071.54 313.90,7073.20 313.88,7075.18 314.94,7077.49"/>
    </edge>
    <edge id=":-101791_4" function="internal">
        <lane id=":-101791_4_0" index="0" disallow="tram rail_urban rail rail_electric rail_fast ship" speed="5.56" length="14.49" shape="317.17,7070.22 303.84,7075.91"/>
    </edge>
    <edge id=":-101791_5" function="internal">
        <lane id=":-101791_5_0" index="0" disallow="tram rail_urban rail rail_electric rail_fast ship" speed="3.65" length="4.67" shape="317.17,7070.22 315.75,7069.96 315.07,7069.38 315.12,7068.49 315.91,7067.28"/>
    </edge>
    <edge id=":-101791_6" function="internal">
        <lane id=":-101791_6_0" index="0" disallow="tram rail_urban rail rail_electric rail_fast ship" speed="5.56" length="14.49" shape="302.58,7072.96 315.91,7067.28"/>
    </edge>
    <edge id=":-101791_7" function="internal">
        <lane id=":-101791_7_0" index="0" disallow="tram rail_urban rail rail_electric rail_fast ship" speed="5.56" length="14.50" shape="302.58,7072.96 306.13,7072.06 309.37,7072.52 312.31,7074.33 314.94,7077.49"/>
    </edge>
    <edge id=":-101791_8" function="internal">
        <lane id=":-101791_8_0" index="0" disallow="tram rail_urban rail rail_electric rail_fast ship" speed="3.65" length="4.67" shape="302.58,7072.96 304.00,7073.23 304.68,7073.81 304.63,7074.70 303.84,7075.91"/>
    </edge>
    <edge id=":-101792_0" function="internal">
        <lane id=":-101792_0_0" index="0" disallow="tram rail_urban rail rail_electric rail_fast ship" speed="5.56" length="9.98" shape="516.12,7362.89 514.09,7360.65 512.02,7359.59 509.91,7359.71 507.76,7361.02"/>
    </edge>
    <edge id=":-101792_1" function="internal">
        <lane id=":-101792_1_0" index="0" disallow="tram rail_urban rail rail_electric rail_fast ship" speed="5.56" length="15.90" shape="516.12,7362.89 513.99,7358.77 514.02,7355.46 516.18,7352.95 520.50,7351.25"/>
    </edge>
    <edge id=":-101792_2" function="internal">
        <lane id=":-101792_2_0" index="0" disallow="tram rail_urban rail rail_electric rail_fast ship" speed="3.65" length="4.67" shape="516.12,7362.89 516.08,7361.45 516.50,7360.66 517.39,7360.53 518.73,7361.04"/>
    </edge>
    <edge id=":-101792_3" function="internal">
        <lane id=":-101792_3_0" index="0" disallow="tram rail_urban rail rail_electric rail_fast ship" speed="5.56" length="9.13" shape="521.24,7354.36 518.77,7355.34 517.52,7356.78 517.51,7358.68 518.73,7361.04"/>
    </edge>
    <edge id=":-101792_4" function="internal">
        <lane id=":-101792_4_0" index="0" disallow="tram rail_urban rail rail_electric rail_fast ship" speed="5.56" length="15.17" shape="521.24,7354.36 517.62,7355.43 514.09,7356.89 510.77,7358.75 507.76,7361.02"/>
    </edge>
    <edge id=":-101792_5" function="internal">
        <lane id=":-101792_5_0" index="0" disallow="tram rail_urban rail rail_electric rail_fast ship" speed="3.65" length="4.67" shape="521.24,7354.36 519.89,7353.87 519.32,7353.18 519.52,7352.31 520.50,7351.25"/>
    </edge>
    <edge id=":-101792_6" function="internal">
        <lane id=":-101792_6_0" index="0" disallow="tram rail_urban rail rail_electric rail_fast ship" speed="5.56" length="16.69" shape="505.66,7358.61 508.88,7356.24 512.67,7354.13 516.66,7352.43 520.50,7351.25"/>
    </edge>
    <edge id=":-101792_7" function="internal">
        <lane id=":-101792_7_0" index="0" disallow="tram rail_urban rail rail_electric rail_fast ship" speed="5.56" length="15.53" shape="505.66,7358.61 509.11,7356.46 512.43,7356.15 515.64,7357.68 518.73,7361.04"/>
    </edge>
    <edge id=":-101792_8" function="internal">
        <lane id=":-101792_8_0" index="0" disallow="tram rail_urban rail rail_electric rail_fast ship" speed="3.65" length="4.67" shape="505.66,7358.61 507.09,7358.42 507.91,7358.76 508.14,7359.63 507.76,7361.02"/>
    </edge>
    <edge id=":-101793_0" function="internal">
        <lane id=":-101793_0_0" index="0" disallow="tram rail_urban rail rail_electric rail_fast ship" speed="8.16" length="9.01" shape="214.39,7287.99 212.03,7288.91 210.20,7290.19 208.88,7291.82 208.10,7293.82"/>
    </edge>
    <edge id=":-101793_1" function="internal">
        <lane id=":-101793_1_0" index="0" disallow="tram rail_urban rail rail_electric rail_fast ship" speed="8.03" length="12.99" shape="214.39,7287.99 210.92,7288.46 208.01,7287.78 205.66,7285.92 203.88,7282.91"/>
    </edge>
    <edge id=":-101793_2" function="internal">
        <lane id=":-101793_2_0" index="0" disallow="tram rail_urban rail rail_electric rail_fast ship" speed="3.65" length="4.67" shape="214.39,7287.99 213.02,7287.54 212.42,7286.88 212.58,7286.00 213.52,7284.91"/>
    </edge>
    <edge id=":-101793_3" function="internal">
        <lane id=":-101793_3_0" index="0" disallow="tram rail_urban rail rail_electric rail_fast ship" speed="6.53" length="8.26" shape="206.84,7281.67 207.97,7283.59 209.46,7284.77 211.31,7285.21 213.52,7284.91"/>
    </edge>
    <edge id=":-101793_4" function="internal">
        <lane id=":-101793_4_0" index="0" disallow="tram rail_urban rail rail_electric rail_fast ship" speed="13.77" length="12.47" shape="206.84,7281.67 208.01,7284.84 208.63,7287.66 208.67,7290.52 208.10,7293.82"/>
    </edge>
    <edge id=":-101793_5" function="internal">
        <lane id=":-101793_5_0" index="0" disallow="tram rail_urban rail rail_electric rail_fast ship" speed="3.65" length="2.34" shape="206.84,7281.67 206.56,7283.09 205.97,7283.77"/>
    </edge>
    <edge id=":-101793_9" function="internal">