<?xml version="1.0" encoding="UTF-8"?>

<!-- generated on Tue Apr 28 22:23:19 2020 by Eclipse SUMO netconvert Version 1.5.0
<configuration xmlns:xsi="http://www.w3.org/2001/XMLSchema-instance" xsi:noNamespaceSchemaLocation="http://sumo.dlr.de/xsd/netconvertConfiguration.xsd">

    <input>
        <osm-files value="linux_map.osm"/>
    </input>

    <output>
        <output-file value="map_baru_mudah2an.net.xml"/>
    </output>

    <projection>
        <proj.utm value="true"/>
    </projection>

    <report>
        <aggregate-warnings value="5"/>
    </report>

</configuration>
-->

<net version="1.3" junctionCornerDetail="5" limitTurnSpeed="5.50" xmlns:xsi="http://www.w3.org/2001/XMLSchema-instance" xsi:noNamespaceSchemaLocation="http://sumo.dlr.de/xsd/net_file.xsd">

    <location netOffset="-331212.88,935039.27" convBoundary="0.00,0.00,8843.17,8088.25" origBoundary="115.462269,-8.456241,115.547094,-8.341677" projParameter="+proj=utm +zone=50 +ellps=WGS84 +datum=WGS84 +units=m +no_defs"/>

    <type id="highway.bridleway" priority="1" numLanes="1" speed="2.78" allow="pedestrian" oneway="1" width="2.00"/>
    <type id="highway.bus_guideway" priority="1" numLanes="1" speed="27.78" allow="bus" oneway="1"/>
    <type id="highway.cycleway" priority="1" numLanes="1" speed="8.33" allow="bicycle" oneway="0" width="1.00"/>
    <type id="highway.footway" priority="1" numLanes="1" speed="2.78" allow="pedestrian" oneway="1" width="2.00"/>
    <type id="highway.ford" priority="1" numLanes="1" speed="2.78" allow="army" oneway="0"/>
    <type id="highway.living_street" priority="2" numLanes="1" speed="2.78" disallow="tram rail_urban rail rail_electric rail_fast ship" oneway="0"/>
    <type id="highway.motorway" priority="14" numLanes="2" speed="39.44" allow="private emergency authority army vip passenger hov taxi bus coach delivery truck trailer motorcycle evehicle custom1 custom2" oneway="1"/>
    <type id="highway.motorway_link" priority="9" numLanes="1" speed="22.22" allow="private emergency authority army vip passenger hov taxi bus coach delivery truck trailer motorcycle evehicle custom1 custom2" oneway="1"/>
    <type id="highway.path" priority="1" numLanes="1" speed="2.78" allow="pedestrian bicycle" oneway="1" width="2.00"/>
    <type id="highway.pedestrian" priority="1" numLanes="1" speed="2.78" allow="pedestrian" oneway="1" width="2.00"/>
    <type id="highway.primary" priority="12" numLanes="2" speed="27.78" disallow="tram rail_urban rail rail_electric rail_fast ship" oneway="0"/>
    <type id="highway.primary_link" priority="7" numLanes="1" speed="22.22" disallow="tram rail_urban rail rail_electric rail_fast ship" oneway="0"/>
    <type id="highway.raceway" priority="15" numLanes="2" speed="83.33" allow="vip" oneway="0"/>
    <type id="highway.residential" priority="3" numLanes="1" speed="13.89" disallow="tram rail_urban rail rail_electric rail_fast ship" oneway="0"/>
    <type id="highway.secondary" priority="11" numLanes="1" speed="27.78" disallow="tram rail_urban rail rail_electric rail_fast ship" oneway="0"/>
    <type id="highway.secondary_link" priority="6" numLanes="1" speed="22.22" disallow="tram rail_urban rail rail_electric rail_fast ship" oneway="0"/>
    <type id="highway.service" priority="1" numLanes="1" speed="5.56" allow="pedestrian delivery bicycle" oneway="0"/>
    <type id="highway.stairs" priority="1" numLanes="1" speed="1.39" allow="pedestrian" oneway="1" width="2.00"/>
    <type id="highway.step" priority="1" numLanes="1" speed="1.39" allow="pedestrian" oneway="1" width="2.00"/>
    <type id="highway.steps" priority="1" numLanes="1" speed="1.39" allow="pedestrian" oneway="1" width="2.00"/>
    <type id="highway.tertiary" priority="10" numLanes="1" speed="22.22" disallow="tram rail_urban rail rail_electric rail_fast ship" oneway="0"/>
    <type id="highway.tertiary_link" priority="5" numLanes="1" speed="22.22" disallow="tram rail_urban rail rail_electric rail_fast ship" oneway="0"/>
    <type id="highway.track" priority="1" numLanes="1" speed="5.56" disallow="tram rail_urban rail rail_electric rail_fast ship" oneway="0"/>
    <type id="highway.trunk" priority="13" numLanes="2" speed="27.78" disallow="pedestrian bicycle tram rail_urban rail rail_electric rail_fast ship" oneway="0"/>
    <type id="highway.trunk_link" priority="8" numLanes="1" speed="22.22" disallow="pedestrian bicycle tram rail_urban rail rail_electric rail_fast ship" oneway="0"/>
    <type id="highway.unclassified" priority="4" numLanes="1" speed="13.89" disallow="tram rail_urban rail rail_electric rail_fast ship" oneway="0"/>
    <type id="highway.unsurfaced" priority="1" numLanes="1" speed="8.33" disallow="tram rail_urban rail rail_electric rail_fast ship" oneway="0"/>
    <type id="railway.highspeed" priority="21" numLanes="1" speed="69.44" allow="rail_fast" oneway="1"/>
    <type id="railway.light_rail" priority="19" numLanes="1" speed="27.78" allow="rail_urban" oneway="1"/>
    <type id="railway.preserved" priority="16" numLanes="1" speed="27.78" allow="rail" oneway="1"/>
    <type id="railway.rail" priority="20" numLanes="1" speed="44.44" allow="rail" oneway="1"/>
    <type id="railway.subway" priority="18" numLanes="1" speed="27.78" allow="rail_urban" oneway="1"/>
    <type id="railway.tram" priority="17" numLanes="1" speed="13.89" allow="tram" oneway="1"/>

    <edge id=":-102101_0" function="internal">
        <lane id=":-102101_0_0" index="0" disallow="tram rail_urban rail rail_electric rail_fast ship" speed="7.83" length="11.31" shape="302.28,6928.30 301.38,6924.92 299.97,6922.47 298.04,6920.94 295.59,6920.34"/>
    </edge>
    <edge id=":-102101_1" function="internal">
        <lane id=":-102101_1_0" index="0" disallow="tram rail_urban rail rail_electric rail_fast ship" speed="13.89" length="16.47" shape="302.28,6928.30 301.79,6924.35 301.59,6920.09 301.74,6915.84 302.32,6911.91"/>
    </edge>
    <edge id=":-102101_2" function="internal">
        <lane id=":-102101_2_0" index="0" disallow="tram rail_urban rail rail_electric rail_fast ship" speed="7.45" length="16.29" shape="302.28,6928.30 302.15,6923.49 303.65,6920.52 306.78,6919.38 311.54,6920.08"/>
    </edge>
    <edge id=":-102101_3" function="internal">
        <lane id=":-102101_3_0" index="0" disallow="tram rail_urban rail rail_electric rail_fast ship" speed="3.65" length="4.67" shape="302.28,6928.30 302.87,6926.99 303.60,6926.46 304.45,6926.73 305.43,6927.78"/>
    </edge>
    <edge id=":-102101_4" function="internal">
        <lane id=":-102101_4_0" index="0" disallow="tram rail_urban rail rail_electric rail_fast ship" speed="5.76" length="9.17" shape="310.65,6923.15 307.97,6922.76 306.21,6923.40 305.36,6925.07 305.43,6927.78"/>
    </edge>
    <edge id=":-102101_5" function="internal">
        <lane id=":-102101_5_0" index="0" disallow="tram rail_urban rail rail_electric rail_fast ship" speed="13.89" length="15.35" shape="310.65,6923.15 306.97,6922.16 303.19,6921.32 299.37,6920.69 295.59,6920.34"/>
    </edge>
    <edge id=":-102101_6" function="internal">
        <lane id=":-102101_6_0" index="0" disallow="tram rail_urban rail rail_electric rail_fast ship" speed="8.59" length="6.62" shape="310.65,6923.15 306.32,6921.34 304.87,6920.07"/>
    </edge>
    <edge id=":-102101_7" function="internal">
        <lane id=":-102101_7_0" index="0" disallow="tram rail_urban rail rail_electric rail_fast ship" speed="3.65" length="2.34" shape="310.65,6923.15 309.72,6922.05 309.56,6921.17"/>
    </edge>
    <edge id=":-102101_16" function="internal">
        <lane id=":-102101_16_0" index="0" disallow="tram rail_urban rail rail_electric rail_fast ship" speed="8.59" length="9.06" shape="304.87,6920.07 303.49,6918.87 302.15,6915.73 302.32,6911.91"/>
    </edge>
    <edge id=":-102101_17" function="internal">
        <lane id=":-102101_17_0" index="0" disallow="tram rail_urban rail rail_electric rail_fast ship" speed="3.65" length="2.34" shape="309.56,6921.17 310.16,6920.51 311.54,6920.08"/>
    </edge>
    <edge id=":-102101_8" function="internal">
        <lane id=":-102101_8_0" index="0" disallow="tram rail_urban rail rail_electric rail_fast ship" speed="7.22" length="10.78" shape="305.44,6912.60 305.38,6915.08 306.38,6917.15 308.43,6918.82 311.54,6920.08"/>
    </edge>
    <edge id=":-102101_9" function="internal">
        <lane id=":-102101_9_0" index="0" disallow="tram rail_urban rail rail_electric rail_fast ship" speed="13.89" length="15.27" shape="305.44,6912.60 304.87,6916.34 304.73,6920.17 304.94,6924.01 305.43,6927.78"/>
    </edge>
    <edge id=":-102101_10" function="internal">
        <lane id=":-102101_10_0" index="0" disallow="tram rail_urban rail rail_electric rail_fast ship" speed="8.41" length="13.83" shape="305.44,6912.60 304.15,6916.14 302.08,6918.61 299.23,6920.01 295.59,6920.34"/>
    </edge>
    <edge id=":-102101_11" function="internal">
        <lane id=":-102101_11_0" index="0" disallow="tram rail_urban rail rail_electric rail_fast ship" speed="3.65" length="4.67" shape="305.44,6912.60 304.40,6913.60 303.54,6913.82 302.84,6913.26 302.32,6911.91"/>
    </edge>
    <edge id=":-102101_12" function="internal">
        <lane id=":-102101_12_0" index="0" disallow="tram rail_urban rail rail_electric rail_fast ship" speed="6.99" length="9.26" shape="295.76,6917.14 298.17,6916.92 300.07,6915.97 301.45,6914.30 302.32,6911.91"/>
    </edge>
    <edge id=":-102101_13" function="internal">
        <lane id=":-102101_13_0" index="0" disallow="tram rail_urban rail rail_electric rail_fast ship" speed="13.89" length="16.08" shape="295.76,6917.14 299.65,6917.51 303.72,6918.18 307.75,6919.07 311.54,6920.08"/>
    </edge>
    <edge id=":-102101_14" function="internal">
        <lane id=":-102101_14_0" index="0" disallow="tram rail_urban rail rail_electric rail_fast ship" speed="9.13" length="6.12" shape="295.76,6917.14 299.36,6917.96 301.32,6919.39"/>
    </edge>
    <edge id=":-102101_15" function="internal">
        <lane id=":-102101_15_0" index="0" disallow="tram rail_urban rail rail_electric rail_fast ship" speed="3.65" length="2.34" shape="295.76,6917.14 296.91,6918.00 297.27,6918.82"/>
    </edge>
    <edge id=":-102101_18" function="internal">
        <lane id=":-102101_18_0" index="0" disallow="tram rail_urban rail rail_electric rail_fast ship" speed="9.13" length="9.57" shape="301.32,6919.39 302.17,6920.01 304.20,6923.28 305.43,6927.78"/>
    </edge>
    <edge id=":-102101_19" function="internal">
        <lane id=":-102101_19_0" index="0" disallow="tram rail_urban rail rail_electric rail_fast ship" speed="3.65" length="2.34" shape="297.27,6918.82 296.83,6919.60 295.59,6920.34"/>
    </edge>
    <edge id=":-102103_0" function="internal">
        <lane id=":-102103_0_0" index="0" disallow="tram rail_urban rail rail_electric rail_fast ship" speed="6.23" length="9.05" shape="418.39,6919.69 417.63,6917.27 416.29,6915.80 414.37,6915.26 411.87,6915.66"/>
    </edge>
    <edge id=":-102103_1" function="internal">
        <lane id=":-102103_1_0" index="0" disallow="tram rail_urban rail rail_electric rail_fast ship" speed="13.89" length="14.73" shape="418.39,6919.69 417.70,6916.04 416.82,6912.49 415.75,6908.99 414.46,6905.52"/>
    </edge>
    <edge id=":-102103_2" function="internal">
        <lane id=":-102103_2_0" index="0" disallow="tram rail_urban rail rail_electric rail_fast ship" speed="3.65" length="2.34" shape="418.39,6919.69 418.99,6918.37 419.71,6917.85"/>
    </edge>
    <edge id=":-102103_9" function="internal">
        <lane id=":-102103_9_0" index="0" disallow="tram rail_urban rail rail_electric rail_fast ship" speed="3.65" length="2.34" shape="419.71,6917.85 420.57,6918.11 421.55,6919.17"/>
    </edge>
    <edge id=":-102103_3" function="internal">
        <lane id=":-102103_3_0" index="0" disallow="tram rail_urban rail rail_electric rail_fast ship" speed="13.89" length="15.43" shape="417.43,6904.33 418.75,6907.91 419.89,6911.64 420.83,6915.42 421.55,6919.17"/>
    </edge>
    <edge id=":-102103_4" function="internal">
        <lane id=":-102103_4_0" index="0" disallow="tram rail_urban rail rail_electric rail_fast ship" speed="7.91" length="6.42" shape="417.43,6904.33 418.37,6908.23 417.91,6910.59"/>
    </edge>
    <edge id=":-102103_5" function="internal">
        <lane id=":-102103_5_0" index="0" disallow="tram rail_urban rail rail_electric rail_fast ship" speed="3.65" length="2.34" shape="417.43,6904.33 417.14,6905.74 416.54,6906.41"/>
    </edge>
    <edge id=":-102103_10" function="internal">
        <lane id=":-102103_10_0" index="0" disallow="tram rail_urban rail rail_electric rail_fast ship" speed="7.91" length="8.25" shape="417.91,6910.59 417.75,6911.43 415.59,6913.90 411.87,6915.66"/>
    </edge>
    <edge id=":-102103_11" function="internal">
        <lane id=":-102103_11_0" index="0" disallow="tram rail_urban rail rail_electric rail_fast ship" speed="3.65" length="2.34" shape="416.54,6906.41 415.65,6906.33 414.46,6905.52"/>
    </edge>
    <edge id=":-102103_6" function="internal">
        <lane id=":-102103_6_0" index="0" disallow="tram rail_urban rail rail_electric rail_fast ship" speed="6.40" length="9.21" shape="410.92,6912.61 413.27,6911.50 414.64,6909.95 415.04,6907.95 414.46,6905.52"/>
    </edge>
    <edge id=":-102103_7" function="internal">
        <lane id=":-102103_7_0" index="0" disallow="tram rail_urban rail rail_electric rail_fast ship" speed="7.77" length="14.75" shape="410.92,6912.61 414.99,6911.95 418.12,6912.83 420.31,6915.23 421.55,6919.17"/>
    </edge>
    <edge id=":-102103_8" function="internal">
        <lane id=":-102103_8_0" index="0" disallow="tram rail_urban rail rail_electric rail_fast ship" speed="3.65" length="4.67" shape="410.92,6912.61 412.30,6913.02 412.92,6913.66 412.78,6914.54 411.87,6915.66"/>
    </edge>
    <edge id=":-102104_0" function="internal">
        <lane id=":-102104_0_0" index="0" disallow="tram rail_urban rail rail_electric rail_fast ship" speed="6.98" length="7.85" shape="317.36,7000.53 315.84,6999.21 314.14,6998.52 312.27,6998.45 310.21,6999.00"/>
    </edge>
    <edge id=":-102104_1" function="internal">
        <lane id=":-102104_1_0" index="0" disallow="tram rail_urban rail rail_electric rail_fast ship" speed="13.89" length="11.90" shape="317.36,7000.53 315.32,6997.98 313.97,6995.67 313.09,6993.14 312.44,6989.93"/>
    </edge>
    <edge id=":-102104_2" function="internal">
        <lane id=":-102104_2_0" index="0" disallow="tram rail_urban rail rail_electric rail_fast ship" speed="3.65" length="2.34" shape="317.36,7000.53 317.17,6999.10 317.51,6998.28"/>
    </edge>
    <edge id=":-102104_9" function="internal">
        <lane id=":-102104_9_0" index="0" disallow="tram rail_urban rail rail_electric rail_fast ship" speed="3.65" length="2.34" shape="317.51,6998.28 318.37,6998.05 319.77,6998.43"/>
    </edge>
    <edge id=":-102104_3" function="internal">
        <lane id=":-102104_3_0" index="0" disallow="tram rail_urban rail rail_electric rail_fast ship" speed="13.89" length="10.16" shape="315.60,6989.41 316.13,6992.36 316.76,6994.36 317.85,6996.13 319.77,6998.43"/>
    </edge>
    <edge id=":-102104_4" function="internal">
        <lane id=":-102104_4_0" index="0" disallow="tram rail_urban rail rail_electric rail_fast ship" speed="8.07" length="4.91" shape="315.60,6989.41 315.69,6992.62 315.16,6994.24"/>
    </edge>
    <edge id=":-102104_5" function="internal">
        <lane id=":-102104_5_0" index="0" disallow="tram rail_urban rail rail_electric rail_fast ship" speed="3.65" length="2.34" shape="315.60,6989.41 315.00,6990.73 314.28,6991.25"/>
    </edge>
    <edge id=":-102104_10" function="internal">
        <lane id=":-102104_10_0" index="0" disallow="tram rail_urban rail rail_electric rail_fast ship" speed="8.07" length="7.11" shape="315.16,6994.24 314.82,6995.28 313.00,6997.41 310.21,6999.00"/>
    </edge>
    <edge id=":-102104_11" function="internal">
        <lane id=":-102104_11_0" index="0" disallow="tram rail_urban rail rail_electric rail_fast ship" speed="3.65" length="2.34" shape="314.28,6991.25 313.42,6990.99 312.44,6989.93"/>
    </edge>
    <edge id=":-102104_6" function="internal">
        <lane id=":-102104_6_0" index="0" disallow="tram rail_urban rail rail_electric rail_fast ship" speed="6.56" length="7.65" shape="309.01,6996.04 310.79,6995.02 311.95,6993.67 312.50,6991.97 312.44,6989.93"/>
    </edge>
    <edge id=":-102104_7" function="internal">
        <lane id=":-102104_7_0" index="0" disallow="tram rail_urban rail rail_electric rail_fast ship" speed="8.44" length="11.84" shape="309.01,6996.04 312.08,6995.22 314.90,6995.34 317.46,6996.41 319.77,6998.43"/>
    </edge>
    <edge id=":-102104_8" function="internal">
        <lane id=":-102104_8_0" index="0" disallow="tram rail_urban rail rail_electric rail_fast ship" speed="3.65" length="4.67" shape="309.01,6996.04 310.43,6996.33 311.10,6996.92 311.03,6997.81 310.21,6999.00"/>
    </edge>
    <edge id=":-102105_0" function="internal">
        <lane id=":-102105_0_0" index="0" disallow="tram rail_urban rail rail_electric rail_fast ship" speed="13.89" length="14.73" shape="376.85,7057.70 363.30,7063.47"/>
    </edge>
    <edge id=":-102105_1" function="internal">
        <lane id=":-102105_1_0" index="0" disallow="tram rail_urban rail rail_electric rail_fast ship" speed="9.32" length="5.54" shape="376.85,7057.70 373.45,7058.53 371.43,7058.27"/>
    </edge>
    <edge id=":-102105_2" function="internal">
        <lane id=":-102105_2_0" index="0" disallow="tram rail_urban rail rail_electric rail_fast ship" speed="3.65" length="2.34" shape="376.85,7057.70 375.44,7057.43 374.75,7056.85"/>
    </edge>
    <edge id=":-102105_9" function="internal">
        <lane id=":-102105_9_0" index="0" disallow="tram rail_urban rail rail_electric rail_fast ship" speed="9.32" length="9.36" shape="371.43,7058.27 370.12,7058.10 366.85,7056.39 363.67,7053.43"/>
    </edge>
    <edge id=":-102105_10" function="internal">
        <lane id=":-102105_10_0" index="0" disallow="tram rail_urban rail rail_electric rail_fast ship" speed="3.65" length="2.34" shape="374.75,7056.85 374.81,7055.96 375.60,7054.75"/>
    </edge>
    <edge id=":-102105_3" function="internal">
        <lane id=":-102105_3_0" index="0" disallow="tram rail_urban rail rail_electric rail_fast ship" speed="8.04" length="10.86" shape="366.07,7051.32 368.46,7053.58 370.84,7054.91 373.22,7055.30 375.60,7054.75"/>
    </edge>
    <edge id=":-102105_4" function="internal">
        <lane id=":-102105_4_0" index="0" disallow="tram rail_urban rail rail_electric rail_fast ship" speed="7.55" length="15.56" shape="366.07,7051.32 368.52,7055.08 368.88,7058.35 367.14,7061.15 363.30,7063.47"/>
    </edge>
    <edge id=":-102105_5" function="internal">
        <lane id=":-102105_5_0" index="0" disallow="tram rail_urban rail rail_electric rail_fast ship" speed="3.65" length="4.67" shape="366.07,7051.32 366.26,7052.75 365.92,7053.58 365.06,7053.80 363.67,7053.43"/>
    </edge>
    <edge id=":-102105_6" function="internal">
        <lane id=":-102105_6_0" index="0" disallow="tram rail_urban rail rail_electric rail_fast ship" speed="5.93" length="9.10" shape="362.04,7060.53 364.29,7059.17 365.30,7057.54 365.10,7055.62 363.67,7053.43"/>
    </edge>
    <edge id=":-102105_7" function="internal">
        <lane id=":-102105_7_0" index="0" disallow="tram rail_urban rail rail_electric rail_fast ship" speed="13.89" length="14.73" shape="362.04,7060.53 375.60,7054.75"/>
    </edge>
    <edge id=":-102105_8" function="internal">
        <lane id=":-102105_8_0" index="0" disallow="tram rail_urban rail rail_electric rail_fast ship" speed="3.65" length="2.34" shape="362.04,7060.53 363.46,7060.80 364.14,7061.38"/>
    </edge>
    <edge id=":-102105_11" function="internal">
        <lane id=":-102105_11_0" index="0" disallow="tram rail_urban rail rail_electric rail_fast ship" speed="3.65" length="2.34" shape="364.14,7061.38 364.09,7062.27 363.30,7063.47"/>
    </edge>
    <edge id=":-102106_0" function="internal">
        <lane id=":-102106_0_0" index="0" disallow="tram rail_urban rail rail_electric rail_fast ship" speed="6.17" length="9.67" shape="331.81,6819.85 329.36,6819.03 327.40,6819.40 325.92,6820.97 324.94,6823.73"/>
    </edge>
    <edge id=":-102106_1" function="internal">
        <lane id=":-102106_1_0" index="0" disallow="tram rail_urban rail rail_electric rail_fast ship" speed="13.89" length="15.33" shape="331.81,6819.85 328.30,6818.44 324.51,6817.69 320.64,6817.58 316.86,6818.07"/>
    </edge>
    <edge id=":-102106_2" function="internal">
        <lane id=":-102106_2_0" index="0" disallow="tram rail_urban rail rail_electric rail_fast ship" speed="3.65" length="2.12" shape="331.81,6819.85 331.12,6818.58 331.14,6817.91"/>
    </edge>
    <edge id=":-102106_9" function="internal">
        <lane id=":-102106_9_0" index="0" disallow="tram rail_urban rail rail_electric rail_fast ship" speed="3.65" length="2.56" shape="331.14,6817.91 331.14,6817.69 331.87,6817.17 333.30,6817.02"/>
    </edge>
    <edge id=":-102106_3" function="internal">
        <lane id=":-102106_3_0" index="0" disallow="tram rail_urban rail rail_electric rail_fast ship" speed="13.89" length="17.49" shape="316.19,6814.94 320.31,6814.50 324.92,6814.71 329.45,6815.56 333.30,6817.02"/>
    </edge>
    <edge id=":-102106_4" function="internal">
        <lane id=":-102106_4_0" index="0" disallow="tram rail_urban rail rail_electric rail_fast ship" speed="7.46" length="8.25" shape="316.19,6814.94 320.94,6814.59 323.98,6815.93 324.05,6816.08"/>
    </edge>
    <edge id=":-102106_5" function="internal">
        <lane id=":-102106_5_0" index="0" disallow="tram rail_urban rail rail_electric rail_fast ship" speed="3.65" length="2.47" shape="316.19,6814.94 317.53,6815.47 318.09,6816.17 318.06,6816.30"/>
    </edge>
    <edge id=":-102106_10" function="internal">
        <lane id=":-102106_10_0" index="0" disallow="tram rail_urban rail rail_electric rail_fast ship" speed="7.46" length="7.93" shape="324.05,6816.08 325.32,6818.98 324.94,6823.73"/>
    </edge>
    <edge id=":-102106_11" function="internal">
        <lane id=":-102106_11_0" index="0" disallow="tram rail_urban rail rail_electric rail_fast ship" speed="3.65" length="2.20" shape="318.06,6816.30 317.87,6817.04 316.86,6818.07"/>
    </edge>
    <edge id=":-102106_6" function="internal">
        <lane id=":-102106_6_0" index="0" disallow="tram rail_urban rail rail_electric rail_fast ship" speed="5.78" length="9.16" shape="321.82,6823.04 322.03,6820.36 321.27,6818.63 319.55,6817.87 316.86,6818.07"/>
    </edge>
    <edge id=":-102106_7" function="internal">
        <lane id=":-102106_7_0" index="0" disallow="tram rail_urban rail rail_electric rail_fast ship" speed="7.74" length="15.91" shape="321.82,6823.04 323.42,6818.61 325.87,6816.13 329.17,6815.60 333.30,6817.02"/>
    </edge>
    <edge id=":-102106_8" function="internal">
        <lane id=":-102106_8_0" index="0" disallow="tram rail_urban rail rail_electric rail_fast ship" speed="3.65" length="4.67" shape="321.82,6823.04 322.86,6822.04 323.72,6821.82 324.42,6822.39 324.94,6823.73"/>
    </edge>
    <edge id=":-102108_0" function="internal">
        <lane id=":-102108_0_0" index="0" disallow="tram rail_urban rail rail_electric rail_fast ship" speed="22.22" length="15.50" shape="45.42,7118.70 41.75,7103.64"/>
    </edge>
    <edge id=":-102108_1" function="internal">
        <lane id=":-102108_1_0" index="0" disallow="tram rail_urban rail rail_electric rail_fast ship" speed="7.40" length="6.68" shape="45.42,7118.70 44.87,7113.60 45.48,7112.17"/>
    </edge>
    <edge id=":-102108_2" function="internal">
        <lane id=":-102108_2_0" index="0" disallow="tram rail_urban rail rail_electric rail_fast ship" speed="3.65" length="2.34" shape="45.42,7118.70 45.92,7117.34 46.60,7116.76"/>
    </edge>
    <edge id=":-102108_9" function="internal">
        <lane id=":-102108_9_0" index="0" disallow="tram rail_urban rail rail_electric rail_fast ship" speed="7.40" length="10.29" shape="45.48,7112.17 46.18,7110.51 49.36,7109.41 54.41,7110.31"/>
    </edge>
    <edge id=":-102108_10" function="internal">
        <lane id=":-102108_10_0" index="0" disallow="tram rail_urban rail rail_electric rail_fast ship" speed="3.65" length="2.34" shape="46.60,7116.76 47.47,7116.96 48.53,7117.94"/>
    </edge>
    <edge id=":-102108_3" function="internal">
        <lane id=":-102108_3_0" index="0" disallow="tram rail_urban rail rail_electric rail_fast ship" speed="5.64" length="9.27" shape="53.44,7113.36 50.68,7112.87 48.95,7113.47 48.23,7115.16 48.53,7117.94"/>
    </edge>
    <edge id=":-102108_4" function="internal">
        <lane id=":-102108_4_0" index="0" disallow="tram rail_urban rail rail_electric rail_fast ship" speed="10.91" length="15.85" shape="53.44,7113.36 48.92,7111.55 45.47,7109.32 43.08,7106.69 41.75,7103.64"/>
    </edge>
    <edge id=":-102108_5" function="internal">
        <lane id=":-102108_5_0" index="0" disallow="tram rail_urban rail rail_electric rail_fast ship" speed="3.65" length="4.67" shape="53.44,7113.36 52.53,7112.24 52.40,7111.35 53.02,7110.71 54.41,7110.31"/>
    </edge>
    <edge id=":-102108_6" function="internal">
        <lane id=":-102108_6_0" index="0" disallow="tram rail_urban rail rail_electric rail_fast ship" speed="9.76" length="12.59" shape="44.86,7102.88 45.89,7105.13 47.83,7107.12 50.67,7108.85 54.41,7110.31"/>
    </edge>
    <edge id=":-102108_7" function="internal">
        <lane id=":-102108_7_0" index="0" disallow="tram rail_urban rail rail_electric rail_fast ship" speed="22.22" length="15.50" shape="44.86,7102.88 48.53,7117.94"/>
    </edge>
    <edge id=":-102108_8" function="internal">
        <lane id=":-102108_8_0" index="0" disallow="tram rail_urban rail rail_electric rail_fast ship" speed="3.65" length="2.34" shape="44.86,7102.88 44.37,7104.24 43.68,7104.82"/>
    </edge>
    <edge id=":-102108_11" function="internal">
        <lane id=":-102108_11_0" index="0" disallow="tram rail_urban rail rail_electric rail_fast ship" speed="3.65" length="2.34" shape="43.68,7104.82 42.81,7104.62 41.75,7103.64"/>
    </edge>
    <edge id=":-102110_0" function="internal">
        <lane id=":-102110_0_0" index="0" disallow="tram rail_urban rail rail_electric rail_fast ship" speed="22.22" length="14.42" shape="27.70,7046.24 24.12,7032.26"/>
    </edge>
    <edge id=":-102110_1" function="internal">
        <lane id=":-102110_1_0" index="0" disallow="tram rail_urban rail rail_electric rail_fast ship" speed="8.30" length="5.78" shape="27.70,7046.24 27.32,7042.49 27.90,7040.56"/>
    </edge>
    <edge id=":-102110_2" function="internal">
        <lane id=":-102110_2_0" index="0" disallow="tram rail_urban rail rail_electric rail_fast ship" speed="3.65" length="2.34" shape="27.70,7046.24 28.18,7044.87 28.85,7044.29"/>
    </edge>
    <edge id=":-102110_9" function="internal">
        <lane id=":-102110_9_0" index="0" disallow="tram rail_urban rail rail_electric rail_fast ship" speed="8.30" length="8.55" shape="27.90,7040.56 28.25,7039.39 30.50,7036.94 34.07,7035.13"/>
    </edge>
    <edge id=":-102110_10" function="internal">
        <lane id=":-102110_10_0" index="0" disallow="tram rail_urban rail rail_electric rail_fast ship" speed="3.65" length="2.34" shape="28.85,7044.29 29.73,7044.48 30.80,7045.44"/>
    </edge>
    <edge id=":-102110_3" function="internal">
        <lane id=":-102110_3_0" index="0" disallow="tram rail_urban rail rail_electric rail_fast ship" speed="6.86" length="9.49" shape="35.12,7038.15 32.72,7039.36 31.20,7040.97 30.56,7043.00 30.80,7045.44"/>
    </edge>
    <edge id=":-102110_4" function="internal">
        <lane id=":-102110_4_0" index="0" disallow="tram rail_urban rail rail_electric rail_fast ship" speed="7.85" length="14.53" shape="35.12,7038.15 31.17,7038.93 28.02,7038.21 25.67,7035.99 24.12,7032.26"/>
    </edge>
    <edge id=":-102110_5" function="internal">
        <lane id=":-102110_5_0" index="0" disallow="tram rail_urban rail rail_electric rail_fast ship" speed="3.65" length="4.67" shape="35.12,7038.15 33.73,7037.80 33.09,7037.17 33.20,7036.29 34.07,7035.13"/>
    </edge>
    <edge id=":-102110_6" function="internal">
        <lane id=":-102110_6_0" index="0" disallow="tram rail_urban rail rail_electric rail_fast ship" speed="6.33" length="9.04" shape="27.22,7031.47 28.18,7033.78 29.64,7035.17 31.61,7035.62 34.07,7035.13"/>
    </edge>
    <edge id=":-102110_7" function="internal">
        <lane id=":-102110_7_0" index="0" disallow="tram rail_urban rail rail_electric rail_fast ship" speed="22.22" length="14.42" shape="27.22,7031.47 30.80,7045.44"/>
    </edge>
    <edge id=":-102110_8" function="internal">
        <lane id=":-102110_8_0" index="0" disallow="tram rail_urban rail rail_electric rail_fast ship" speed="3.65" length="2.34" shape="27.22,7031.47 26.74,7032.83 26.07,7033.42"/>
    </edge>
    <edge id=":-102110_11" function="internal">
        <lane id=":-102110_11_0" index="0" disallow="tram rail_urban rail rail_electric rail_fast ship" speed="3.65" length="2.34" shape="26.07,7033.42 25.19,7033.23 24.12,7032.26"/>
    </edge>
    <edge id=":-102111_0" function="internal">
        <lane id=":-102111_0_0" index="0" disallow="tram rail_urban rail rail_electric rail_fast ship" speed="6.05" length="9.07" shape="241.63,7304.59 240.95,7302.11 239.66,7300.64 237.75,7300.19 235.24,7300.76"/>
    </edge>
    <edge id=":-102111_1" function="internal">
        <lane id=":-102111_1_0" index="0" disallow="tram rail_urban rail rail_electric rail_fast ship" speed="13.89" length="14.86" shape="241.63,7304.59 241.05,7300.91 240.24,7297.30 239.17,7293.75 237.82,7290.28"/>
    </edge>
    <edge id=":-102111_2" function="internal">
        <lane id=":-102111_2_0" index="0" disallow="tram rail_urban rail rail_electric rail_fast ship" speed="3.65" length="2.34" shape="241.63,7304.59 242.28,7303.30 243.02,7302.80"/>
    </edge>
    <edge id=":-102111_9" function="internal">