<?xml version="1.0" encoding="UTF-8"?>

<!-- generated on Tue Apr 28 20:36:46 2020 by Eclipse SUMO netconvert Version 1.4.0
<configuration xmlns:xsi="http://www.w3.org/2001/XMLSchema-instance" xsi:noNamespaceSchemaLocation="http://sumo.dlr.de/xsd/netconvertConfiguration.xsd">

    <input>
        <osm-files value="map_baru.osm"/>
    </input>

    <output>
        <output-file value="700x780_map.net.xml"/>
    </output>

    <projection>
        <proj.utm value="true"/>
    </projection>

    <processing>
        <offset.disable-normalization value="true"/>
    </processing>

    <report>
        <aggregate-warnings value="5"/>
    </report>

</configuration>
-->

<net version="1.3" junctionCornerDetail="5" limitTurnSpeed="5.50" xmlns:xsi="http://www.w3.org/2001/XMLSchema-instance" xsi:noNamespaceSchemaLocation="http://sumo.dlr.de/xsd/net_file.xsd">

    <location netOffset="0.00,0.00" convBoundary="331212.88,-928234.30,331910.87,-927454.11" origBoundary="115.462269,-8.395525,115.501639,-8.341677" projParameter="+proj=utm +zone=50 +ellps=WGS84 +datum=WGS84 +units=m +no_defs"/>

    <type id="highway.bridleway" priority="1" numLanes="1" speed="2.78" allow="pedestrian" oneway="1" width="2.00"/>
    <type id="highway.bus_guideway" priority="1" numLanes="1" speed="27.78" allow="bus" oneway="1"/>
    <type id="highway.cycleway" priority="1" numLanes="1" speed="8.33" allow="bicycle" oneway="0" width="1.00"/>
    <type id="highway.footway" priority="1" numLanes="1" speed="2.78" allow="pedestrian" oneway="1" width="2.00"/>
    <type id="highway.ford" priority="1" numLanes="1" speed="2.78" allow="army" oneway="0"/>
    <type id="highway.living_street" priority="2" numLanes="1" speed="2.78" disallow="tram rail_urban rail rail_electric rail_fast ship" oneway="0"/>
    <type id="highway.motorway" priority="14" numLanes="2" speed="39.44" allow="private emergency authority army vip passenger hov taxi bus coach delivery truck trailer motorcycle evehicle custom1 custom2" oneway="1"/>
    <type id="highway.motorway_link" priority="9" numLanes="1" speed="22.22" allow="private emergency authority army vip passenger hov taxi bus coach delivery truck trailer motorcycle evehicle custom1 custom2" oneway="1"/>
    <type id="highway.path" priority="1" numLanes="1" speed="2.78" allow="pedestrian bicycle" oneway="1" width="2.00"/>
    <type id="highway.pedestrian" priority="1" numLanes="1" speed="2.78" allow="pedestrian" oneway="1" width="2.00"/>
    <type id="highway.primary" priority="12" numLanes="2" speed="27.78" disallow="tram rail_urban rail rail_electric rail_fast ship" oneway="0"/>
    <type id="highway.primary_link" priority="7" numLanes="1" speed="22.22" disallow="tram rail_urban rail rail_electric rail_fast ship" oneway="0"/>
    <type id="highway.raceway" priority="15" numLanes="2" speed="83.33" allow="vip" oneway="0"/>
    <type id="highway.residential" priority="3" numLanes="1" speed="13.89" disallow="tram rail_urban rail rail_electric rail_fast ship" oneway="0"/>
    <type id="highway.secondary" priority="11" numLanes="1" speed="27.78" disallow="tram rail_urban rail rail_electric rail_fast ship" oneway="0"/>
    <type id="highway.secondary_link" priority="6" numLanes="1" speed="22.22" disallow="tram rail_urban rail rail_electric rail_fast ship" oneway="0"/>
    <type id="highway.service" priority="1" numLanes="1" speed="5.56" allow="pedestrian delivery bicycle" oneway="0"/>
    <type id="highway.stairs" priority="1" numLanes="1" speed="1.39" allow="pedestrian" oneway="1" width="2.00"/>
    <type id="highway.step" priority="1" numLanes="1" speed="1.39" allow="pedestrian" oneway="1" width="2.00"/>
    <type id="highway.steps" priority="1" numLanes="1" speed="1.39" allow="pedestrian" oneway="1" width="2.00"/>
    <type id="highway.tertiary" priority="10" numLanes="1" speed="22.22" disallow="tram rail_urban rail rail_electric rail_fast ship" oneway="0"/>
    <type id="highway.tertiary_link" priority="5" numLanes="1" speed="22.22" disallow="tram rail_urban rail rail_electric rail_fast ship" oneway="0"/>
    <type id="highway.track" priority="1" numLanes="1" speed="5.56" disallow="tram rail_urban rail rail_electric rail_fast ship" oneway="0"/>
    <type id="highway.trunk" priority="13" numLanes="2" speed="27.78" disallow="pedestrian bicycle tram rail_urban rail rail_electric rail_fast ship" oneway="0"/>
    <type id="highway.trunk_link" priority="8" numLanes="1" speed="22.22" disallow="pedestrian bicycle tram rail_urban rail rail_electric rail_fast ship" oneway="0"/>
    <type id="highway.unclassified" priority="4" numLanes="1" speed="13.89" disallow="tram rail_urban rail rail_electric rail_fast ship" oneway="0"/>
    <type id="highway.unsurfaced" priority="1" numLanes="1" speed="8.33" disallow="tram rail_urban rail rail_electric rail_fast ship" oneway="0"/>
    <type id="railway.highspeed" priority="21" numLanes="1" speed="69.44" allow="rail_fast" oneway="1"/>
    <type id="railway.light_rail" priority="19" numLanes="1" speed="27.78" allow="rail_urban" oneway="1"/>
    <type id="railway.preserved" priority="16" numLanes="1" speed="27.78" allow="rail" oneway="1"/>
    <type id="railway.rail" priority="20" numLanes="1" speed="44.44" allow="rail" oneway="1"/>
    <type id="railway.subway" priority="18" numLanes="1" speed="27.78" allow="rail_urban" oneway="1"/>
    <type id="railway.tram" priority="17" numLanes="1" speed="13.89" allow="tram" oneway="1"/>

    <edge id=":-102127_0" function="internal">
        <lane id=":-102127_0_0" index="0" disallow="tram rail_urban rail rail_electric rail_fast ship" speed="5.95" length="9.09" shape="331608.80,-927778.84 331607.37,-927781.03 331605.70,-927781.99 331603.78,-927781.74 331601.63,-927780.26"/>
    </edge>
    <edge id=":-102127_1" function="internal">
        <lane id=":-102127_1_0" index="0" disallow="tram rail_urban rail rail_electric rail_fast ship" speed="13.89" length="18.42" shape="331608.80,-927778.84 331607.32,-927782.85 331606.13,-927787.63 331605.33,-927792.50 331605.01,-927796.78"/>
    </edge>
    <edge id=":-102127_2" function="internal">
        <lane id=":-102127_2_0" index="0" disallow="tram rail_urban rail rail_electric rail_fast ship" speed="9.04" length="16.70" shape="331608.80,-927778.84 331608.13,-927782.62 331609.01,-927786.83 331611.10,-927790.74 331614.09,-927793.59"/>
    </edge>
    <edge id=":-102127_3" function="internal">
        <lane id=":-102127_3_0" index="0" disallow="tram rail_urban rail rail_electric rail_fast ship" speed="3.65" length="4.67" shape="331608.80,-927778.84 331609.02,-927780.27 331609.57,-927780.97 331610.47,-927780.95 331611.70,-927780.20"/>
    </edge>
    <edge id=":-102127_4" function="internal">
        <lane id=":-102127_4_0" index="0" disallow="tram rail_urban rail rail_electric rail_fast ship" speed="7.94" length="12.69" shape="331615.79,-927790.87 331612.89,-927788.56 331611.25,-927786.01 331610.85,-927783.22 331611.70,-927780.20"/>
    </edge>
    <edge id=":-102127_5" function="internal">
        <lane id=":-102127_5_0" index="0" disallow="tram rail_urban rail rail_electric rail_fast ship" speed="13.89" length="17.71" shape="331615.79,-927790.87 331612.30,-927788.57 331608.50,-927785.84 331604.80,-927782.97 331601.63,-927780.26"/>
    </edge>
    <edge id=":-102127_6" function="internal">
        <lane id=":-102127_6_0" index="0" disallow="tram rail_urban rail rail_electric rail_fast ship" speed="7.39" length="6.30" shape="331615.79,-927790.87 331611.12,-927788.74 331609.95,-927788.84"/>
    </edge>
    <edge id=":-102127_7" function="internal">
        <lane id=":-102127_7_0" index="0" disallow="tram rail_urban rail rail_electric rail_fast ship" speed="3.65" length="2.34" shape="331615.79,-927790.87 331614.34,-927790.92 331613.58,-927791.38"/>
    </edge>
    <edge id=":-102127_16" function="internal">
        <lane id=":-102127_16_0" index="0" disallow="tram rail_urban rail rail_electric rail_fast ship" speed="7.39" length="10.69" shape="331609.95,-927788.84 331607.77,-927789.02 331605.73,-927791.70 331605.01,-927796.78"/>
    </edge>
    <edge id=":-102127_17" function="internal">
        <lane id=":-102127_17_0" index="0" disallow="tram rail_urban rail rail_electric rail_fast ship" speed="3.65" length="2.34" shape="331613.58,-927791.38 331613.50,-927792.27 331614.09,-927793.59"/>
    </edge>
    <edge id=":-102127_8" function="internal">
        <lane id=":-102127_8_0" index="0" disallow="tram rail_urban rail rail_electric rail_fast ship" speed="5.64" length="9.27" shape="331608.21,-927796.81 331608.60,-927794.04 331609.71,-927792.57 331611.54,-927792.43 331614.09,-927793.59"/>
    </edge>
    <edge id=":-102127_9" function="internal">
        <lane id=":-102127_9_0" index="0" disallow="tram rail_urban rail rail_electric rail_fast ship" speed="13.89" length="17.07" shape="331608.21,-927796.81 331608.48,-927792.74 331609.18,-927788.33 331610.27,-927784.00 331611.70,-927780.20"/>
    </edge>
    <edge id=":-102127_10" function="internal">
        <lane id=":-102127_10_0" index="0" disallow="tram rail_urban rail rail_electric rail_fast ship" speed="13.31" length="18.14" shape="331608.21,-927796.81 331607.67,-927792.45 331606.19,-927787.73 331604.07,-927783.41 331601.63,-927780.26"/>
    </edge>
    <edge id=":-102127_11" function="internal">
        <lane id=":-102127_11_0" index="0" disallow="tram rail_urban rail rail_electric rail_fast ship" speed="3.65" length="4.67" shape="331608.21,-927796.81 331607.42,-927795.60 331606.63,-927795.19 331605.82,-927795.58 331605.01,-927796.78"/>
    </edge>
    <edge id=":-102127_12" function="internal">
        <lane id=":-102127_12_0" index="0" disallow="tram rail_urban rail rail_electric rail_fast ship" speed="12.39" length="15.66" shape="331599.47,-927782.62 331601.92,-927785.44 331603.67,-927788.74 331604.70,-927792.52 331605.01,-927796.78"/>
    </edge>
    <edge id=":-102127_13" function="internal">
        <lane id=":-102127_13_0" index="0" disallow="tram rail_urban rail rail_electric rail_fast ship" speed="13.89" length="18.30" shape="331599.47,-927782.62 331602.71,-927785.39 331606.57,-927788.38 331610.53,-927791.23 331614.09,-927793.59"/>
    </edge>
    <edge id=":-102127_14" function="internal">
        <lane id=":-102127_14_0" index="0" disallow="tram rail_urban rail rail_electric rail_fast ship" speed="7.57" length="6.69" shape="331599.47,-927782.62 331603.14,-927785.14 331605.36,-927785.43"/>
    </edge>
    <edge id=":-102127_15" function="internal">
        <lane id=":-102127_15_0" index="0" disallow="tram rail_urban rail rail_electric rail_fast ship" speed="3.65" length="2.34" shape="331599.47,-927782.62 331600.89,-927782.84 331601.73,-927782.52"/>
    </edge>
    <edge id=":-102127_18" function="internal">
        <lane id=":-102127_18_0" index="0" disallow="tram rail_urban rail rail_electric rail_fast ship" speed="7.57" length="8.80" shape="331605.36,-927785.43 331606.41,-927785.57 331609.26,-927783.93 331611.70,-927780.20"/>
    </edge>
    <edge id=":-102127_19" function="internal">
        <lane id=":-102127_19_0" index="0" disallow="tram rail_urban rail rail_electric rail_fast ship" speed="3.65" length="2.34" shape="331601.73,-927782.52 331601.97,-927781.66 331601.63,-927780.26"/>
    </edge>
    <edge id=":-102130_0" function="internal">
        <lane id=":-102130_0_0" index="0" disallow="tram rail_urban rail rail_electric rail_fast ship" speed="8.43" length="9.73" shape="331648.28,-927702.34 331646.21,-927703.32 331643.97,-927703.62 331641.58,-927703.25 331639.02,-927702.21"/>
    </edge>
    <edge id=":-102130_1" function="internal">
        <lane id=":-102130_1_0" index="0" disallow="tram rail_urban rail rail_electric rail_fast ship" speed="13.89" length="13.20" shape="331648.28,-927702.34 331645.52,-927704.44 331643.37,-927706.70 331641.61,-927709.29 331640.01,-927712.38"/>
    </edge>
    <edge id=":-102130_2" function="internal">
        <lane id=":-102130_2_0" index="0" disallow="tram rail_urban rail rail_electric rail_fast ship" speed="3.65" length="2.34" shape="331648.28,-927702.34 331647.72,-927703.67 331647.82,-927704.56"/>
    </edge>
    <edge id=":-102130_9" function="internal">
        <lane id=":-102130_9_0" index="0" disallow="tram rail_urban rail rail_electric rail_fast ship" speed="3.65" length="2.34" shape="331647.82,-927704.56 331648.60,-927705.01 331650.04,-927705.02"/>
    </edge>
    <edge id=":-102130_3" function="internal">
        <lane id=":-102130_3_0" index="0" disallow="tram rail_urban rail rail_electric rail_fast ship" speed="13.89" length="11.48" shape="331642.90,-927713.74 331644.33,-927710.86 331645.70,-927708.71 331647.46,-927706.90 331650.04,-927705.02"/>
    </edge>
    <edge id=":-102130_4" function="internal">
        <lane id=":-102130_4_0" index="0" disallow="tram rail_urban rail rail_electric rail_fast ship" speed="8.01" length="5.12" shape="331642.90,-927713.74 331644.00,-927710.16 331643.88,-927708.80"/>
    </edge>
    <edge id=":-102130_5" function="internal">
        <lane id=":-102130_5_0" index="0" disallow="tram rail_urban rail rail_electric rail_fast ship" speed="3.65" length="2.34" shape="331642.90,-927713.74 331642.69,-927712.32 331642.14,-927711.61"/>
    </edge>
    <edge id=":-102130_10" function="internal">
        <lane id=":-102130_10_0" index="0" disallow="tram rail_urban rail rail_electric rail_fast ship" speed="8.01" length="8.63" shape="331643.88,-927708.80 331643.72,-927707.05 331642.06,-927704.39 331639.02,-927702.21"/>
    </edge>
    <edge id=":-102130_11" function="internal">
        <lane id=":-102130_11_0" index="0" disallow="tram rail_urban rail rail_electric rail_fast ship" speed="3.65" length="2.34" shape="331642.14,-927711.61 331641.24,-927711.64 331640.01,-927712.38"/>
    </edge>
    <edge id=":-102130_6" function="internal">
        <lane id=":-102130_6_0" index="0" disallow="tram rail_urban rail rail_electric rail_fast ship" speed="6.51" length="8.75" shape="331637.54,-927705.04 331639.47,-927706.43 331640.53,-927708.12 331640.71,-927710.10 331640.01,-927712.38"/>
    </edge>
    <edge id=":-102130_7" function="internal">
        <lane id=":-102130_7_0" index="0" disallow="tram rail_urban rail rail_electric rail_fast ship" speed="9.72" length="13.14" shape="331637.54,-927705.04 331640.92,-927706.40 331644.13,-927706.85 331647.17,-927706.39 331650.04,-927705.02"/>
    </edge>
    <edge id=":-102130_8" function="internal">
        <lane id=":-102130_8_0" index="0" disallow="tram rail_urban rail rail_electric rail_fast ship" speed="3.65" length="4.67" shape="331637.54,-927705.04 331638.97,-927704.89 331639.70,-927704.37 331639.71,-927703.47 331639.02,-927702.21"/>
    </edge>
    <edge id=":-102138_0" function="internal">
        <lane id=":-102138_0_0" index="0" disallow="tram rail_urban rail rail_electric rail_fast ship" speed="6.77" length="9.37" shape="331629.16,-928145.81 331628.68,-928148.22 331627.49,-928149.95 331625.59,-928151.02 331622.99,-928151.41"/>
    </edge>
    <edge id=":-102138_1" function="internal">
        <lane id=":-102138_1_0" index="0" disallow="tram rail_urban rail rail_electric rail_fast ship" speed="13.89" length="14.41" shape="331629.16,-928145.81 331628.49,-928160.20"/>
    </edge>
    <edge id=":-102138_2" function="internal">
        <lane id=":-102138_2_0" index="0" disallow="tram rail_urban rail rail_electric rail_fast ship" speed="3.65" length="2.34" shape="331629.16,-928145.81 331629.90,-928147.04 331630.68,-928147.48"/>
    </edge>
    <edge id=":-102138_9" function="internal">
        <lane id=":-102138_9_0" index="0" disallow="tram rail_urban rail rail_electric rail_fast ship" speed="3.65" length="2.34" shape="331630.68,-928147.48 331631.50,-928147.12 331632.35,-928145.95"/>
    </edge>
    <edge id=":-102138_3" function="internal">
        <lane id=":-102138_3_0" index="0" disallow="tram rail_urban rail rail_electric rail_fast ship" speed="13.89" length="14.41" shape="331631.69,-928160.35 331632.35,-928145.95"/>
    </edge>
    <edge id=":-102138_4" function="internal">
        <lane id=":-102138_4_0" index="0" disallow="tram rail_urban rail rail_electric rail_fast ship" speed="7.89" length="5.94" shape="331631.69,-928160.35 331631.30,-928156.38 331630.35,-928154.68"/>
    </edge>
    <edge id=":-102138_5" function="internal">
        <lane id=":-102138_5_0" index="0" disallow="tram rail_urban rail rail_electric rail_fast ship" speed="3.65" length="2.34" shape="331631.69,-928160.35 331630.95,-928159.12 331630.17,-928158.68"/>
    </edge>
    <edge id=":-102138_10" function="internal">
        <lane id=":-102138_10_0" index="0" disallow="tram rail_urban rail rail_electric rail_fast ship" speed="7.89" length="8.50" shape="331630.35,-928154.68 331629.72,-928153.56 331626.95,-928151.91 331622.99,-928151.41"/>
    </edge>
    <edge id=":-102138_11" function="internal">
        <lane id=":-102138_11_0" index="0" disallow="tram rail_urban rail rail_electric rail_fast ship" speed="3.65" length="2.34" shape="331630.17,-928158.68 331629.35,-928159.04 331628.49,-928160.20"/>
    </edge>
    <edge id=":-102138_6" function="internal">
        <lane id=":-102138_6_0" index="0" disallow="tram rail_urban rail rail_electric rail_fast ship" speed="6.37" length="9.04" shape="331623.05,-928154.61 331625.53,-928154.92 331627.26,-928155.96 331628.25,-928157.72 331628.49,-928160.20"/>
    </edge>
    <edge id=":-102138_7" function="internal">
        <lane id=":-102138_7_0" index="0" disallow="tram rail_urban rail rail_electric rail_fast ship" speed="8.22" length="14.29" shape="331623.05,-928154.61 331626.97,-928154.01 331629.83,-928152.36 331631.63,-928149.68 331632.35,-928145.95"/>
    </edge>
    <edge id=":-102138_8" function="internal">
        <lane id=":-102138_8_0" index="0" disallow="tram rail_urban rail rail_electric rail_fast ship" speed="3.65" length="4.67" shape="331623.05,-928154.61 331624.23,-928153.79 331624.62,-928152.98 331624.20,-928152.19 331622.99,-928151.41"/>
    </edge>
    <edge id=":-102139_0" function="internal">
        <lane id=":-102139_0_0" index="0" disallow="tram rail_urban rail rail_electric rail_fast ship" speed="6.57" length="7.54" shape="331448.75,-927679.02 331447.33,-927680.44 331445.73,-927681.20 331443.97,-927681.30 331442.05,-927680.74"/>
    </edge>
    <edge id=":-102139_1" function="internal">
        <lane id=":-102139_1_0" index="0" disallow="tram rail_urban rail rail_electric rail_fast ship" speed="8.16" length="11.81" shape="331448.75,-927679.02 331447.18,-927681.75 331446.64,-927684.47 331447.14,-927687.19 331448.69,-927689.90"/>
    </edge>
    <edge id=":-102139_2" function="internal">
        <lane id=":-102139_2_0" index="0" disallow="tram rail_urban rail rail_electric rail_fast ship" speed="3.65" length="4.67" shape="331448.75,-927679.02 331448.65,-927680.46 331449.05,-927681.27 331449.92,-927681.44 331451.29,-927680.97"/>
    </edge>
    <edge id=":-102139_3" function="internal">
        <lane id=":-102139_3_0" index="0" disallow="tram rail_urban rail rail_electric rail_fast ship" speed="6.66" length="7.59" shape="331451.23,-927687.96 331450.25,-927686.22 331449.92,-927684.48 331450.27,-927682.73 331451.29,-927680.97"/>
    </edge>
    <edge id=":-102139_4" function="internal">
        <lane id=":-102139_4_0" index="0" disallow="tram rail_urban rail rail_electric rail_fast ship" speed="13.89" length="11.86" shape="331451.23,-927687.96 331449.16,-927685.44 331447.22,-927683.61 331444.99,-927682.16 331442.05,-927680.74"/>
    </edge>
    <edge id=":-102139_5" function="internal">
        <lane id=":-102139_5_0" index="0" disallow="tram rail_urban rail rail_electric rail_fast ship" speed="3.65" length="2.34" shape="331451.23,-927687.96 331449.87,-927687.49 331448.99,-927687.66"/>
    </edge>
    <edge id=":-102139_9" function="internal">
        <lane id=":-102139_9_0" index="0" disallow="tram rail_urban rail rail_electric rail_fast ship" speed="3.65" length="2.34" shape="331448.99,-927687.66 331448.60,-927688.46 331448.69,-927689.90"/>
    </edge>
    <edge id=":-102139_6" function="internal">
        <lane id=":-102139_6_0" index="0" disallow="tram rail_urban rail rail_electric rail_fast ship" speed="13.89" length="10.28" shape="331440.75,-927683.66 331443.50,-927684.93 331445.30,-927686.05 331446.81,-927687.53 331448.69,-927689.90"/>
    </edge>
    <edge id=":-102139_7" function="internal">
        <lane id=":-102139_7_0" index="0" disallow="tram rail_urban rail rail_electric rail_fast ship" speed="8.08" length="4.93" shape="331440.75,-927683.66 331443.78,-927684.54 331445.56,-927684.44"/>
    </edge>
    <edge id=":-102139_8" function="internal">
        <lane id=":-102139_8_0" index="0" disallow="tram rail_urban rail rail_electric rail_fast ship" speed="3.65" length="2.34" shape="331440.75,-927683.66 331442.17,-927683.42 331442.86,-927682.85"/>
    </edge>
    <edge id=":-102139_10" function="internal">
        <lane id=":-102139_10_0" index="0" disallow="tram rail_urban rail rail_electric rail_fast ship" speed="8.08" length="6.92" shape="331445.56,-927684.44 331446.55,-927684.39 331449.05,-927683.20 331451.29,-927680.97"/>
    </edge>
    <edge id=":-102139_11" function="internal">
        <lane id=":-102139_11_0" index="0" disallow="tram rail_urban rail rail_electric rail_fast ship" speed="3.65" length="2.34" shape="331442.86,-927682.85 331442.82,-927681.95 331442.05,-927680.74"/>
    </edge>
    <edge id=":-102140_0" function="internal">
        <lane id=":-102140_0_0" index="0" disallow="tram rail_urban rail rail_electric rail_fast ship" speed="12.16" length="9.65" shape="331466.12,-927702.88 331463.43,-927702.00 331461.67,-927701.08 331460.23,-927699.70 331458.47,-927697.47"/>
    </edge>
    <edge id=":-102140_1" function="internal">
        <lane id=":-102140_1_0" index="0" disallow="tram rail_urban rail rail_electric rail_fast ship" speed="8.57" length="4.69" shape="331466.12,-927702.88 331463.19,-927702.42 331461.48,-927702.68"/>
    </edge>
    <edge id=":-102140_2" function="internal">
        <lane id=":-102140_2_0" index="0" disallow="tram rail_urban rail rail_electric rail_fast ship" speed="3.65" length="2.34" shape="331466.12,-927702.88 331464.74,-927703.31 331464.13,-927703.96"/>
    </edge>
    <edge id=":-102140_9" function="internal">
        <lane id=":-102140_9_0" index="0" disallow="tram rail_urban rail rail_electric rail_fast ship" speed="8.57" length="6.87" shape="331461.48,-927702.68 331460.50,-927702.84 331458.05,-927704.13 331455.83,-927706.30"/>
    </edge>
    <edge id=":-102140_10" function="internal">
        <lane id=":-102140_10_0" index="0" disallow="tram rail_urban rail rail_electric rail_fast ship" speed="3.65" length="2.34" shape="331464.13,-927703.96 331464.28,-927704.84 331465.21,-927705.95"/>
    </edge>
    <edge id=":-102140_3" function="internal">
        <lane id=":-102140_3_0" index="0" disallow="tram rail_urban rail rail_electric rail_fast ship" speed="7.12" length="7.76" shape="331458.33,-927708.31 331459.83,-927706.83 331461.47,-927705.94 331463.27,-927705.65 331465.21,-927705.95"/>
    </edge>
    <edge id=":-102140_4" function="internal">
        <lane id=":-102140_4_0" index="0" disallow="tram rail_urban rail rail_electric rail_fast ship" speed="8.08" length="11.81" shape="331458.33,-927708.31 331459.95,-927705.62 331460.52,-927702.92 331460.02,-927700.20 331458.47,-927697.47"/>
    </edge>
    <edge id=":-102140_5" function="internal">
        <lane id=":-102140_5_0" index="0" disallow="tram rail_urban rail rail_electric rail_fast ship" speed="3.65" length="4.67" shape="331458.33,-927708.31 331458.46,-927706.87 331458.08,-927706.06 331457.21,-927705.87 331455.83,-927706.30"/>
    </edge>
    <edge id=":-102140_6" function="internal">
        <lane id=":-102140_6_0" index="0" disallow="tram rail_urban rail rail_electric rail_fast ship" speed="6.57" length="7.51" shape="331455.92,-927699.41 331456.91,-927701.14 331457.23,-927702.87 331456.87,-927704.59 331455.83,-927706.30"/>
    </edge>
    <edge id=":-102140_7" function="internal">
        <lane id=":-102140_7_0" index="0" disallow="tram rail_urban rail rail_electric rail_fast ship" speed="13.32" length="11.63" shape="331455.92,-927699.41 331457.98,-927701.91 331459.90,-927703.64 331462.16,-927704.89 331465.21,-927705.95"/>
    </edge>
    <edge id=":-102140_8" function="internal">
        <lane id=":-102140_8_0" index="0" disallow="tram rail_urban rail rail_electric rail_fast ship" speed="3.65" length="2.34" shape="331455.92,-927699.41 331457.29,-927699.88 331458.16,-927699.71"/>
    </edge>
    <edge id=":-102140_11" function="internal">
        <lane id=":-102140_11_0" index="0" disallow="tram rail_urban rail rail_electric rail_fast ship" speed="3.65" length="2.34" shape="331458.16,-927699.71 331458.56,-927698.91 331458.47,-927697.47"/>
    </edge>
    <edge id=":-102145_0" function="internal">
        <lane id=":-102145_0_0" index="0" disallow="tram rail_urban rail rail_electric rail_fast ship" speed="13.89" length="12.21" shape="331730.09,-927644.75 331728.38,-927647.60 331726.71,-927649.84 331724.73,-927651.79 331722.06,-927653.74"/>
    </edge>
    <edge id=":-102145_1" function="internal">
        <lane id=":-102145_1_0" index="0" disallow="tram rail_urban rail rail_electric rail_fast ship" speed="8.00" length="5.25" shape="331730.09,-927644.75 331728.66,-927648.37 331728.69,-927649.73"/>
    </edge>
    <edge id=":-102145_2" function="internal">
        <lane id=":-102145_2_0" index="0" disallow="tram rail_urban rail rail_electric rail_fast ship" speed="3.65" length="2.34" shape="331730.09,-927644.75 331730.19,-927646.19 331730.69,-927646.93"/>
    </edge>
    <edge id=":-102145_9" function="internal">
        <lane id=":-102145_9_0" index="0" disallow="tram rail_urban rail rail_electric rail_fast ship" speed="8.00" length="8.95" shape="331728.69,-927649.73 331728.74,-927651.58 331730.32,-927654.37 331733.40,-927656.75"/>
    </edge>
    <edge id=":-102145_10" function="internal">
        <lane id=":-102145_10_0" index="0" disallow="tram rail_urban rail rail_electric rail_fast ship" speed="3.65" length="2.34" shape="331730.69,-927646.93 331731.58,-927646.98 331732.87,-927646.33"/>
    </edge>
    <edge id=":-102145_3" function="internal">
        <lane id=":-102145_3_0" index="0" disallow="tram rail_urban rail rail_electric rail_fast ship" speed="6.50" length="9.03" shape="331734.98,-927653.96 331733.02,-927652.45 331732.01,-927650.67 331731.96,-927648.64 331732.87,-927646.33"/>
    </edge>
    <edge id=":-102145_4" function="internal">
        <lane id=":-102145_4_0" index="0" disallow="tram rail_urban rail rail_electric rail_fast ship" speed="9.70" length="13.63" shape="331734.98,-927653.96 331731.50,-927652.44 331728.18,-927651.89 331725.04,-927652.33 331722.06,-927653.74"/>
    </edge>
    <edge id=":-102145_5" function="internal">
        <lane id=":-102145_5_0" index="0" disallow="tram rail_urban rail rail_electric rail_fast ship" speed="3.65" length="4.67" shape="331734.98,-927653.96 331733.54,-927654.07 331732.80,-927654.57 331732.75,-927655.46 331733.40,-927656.75"/>
    </edge>
    <edge id=":-102145_6" function="internal">
        <lane id=":-102145_6_0" index="0" disallow="tram rail_urban rail rail_electric rail_fast ship" speed="8.43" length="10.11" shape="331723.82,-927656.42 331725.98,-927655.41 331728.29,-927655.13 331730.77,-927655.58 331733.40,-927656.75"/>
    </edge>
    <edge id=":-102145_7" function="internal">
        <lane id=":-102145_7_0" index="0" disallow="tram rail_urban rail rail_electric rail_fast ship" speed="13.89" length="13.69" shape="331723.82,-927656.42 331726.65,-927654.29 331728.98,-927651.97 331731.00,-927649.35 331732.87,-927646.33"/>
    </edge>
    <edge id=":-102145_8" function="internal">
        <lane id=":-102145_8_0" index="0" disallow="tram rail_urban rail rail_electric rail_fast ship" speed="3.65" length="2.34" shape="331723.82,-927656.42 331724.38,-927655.09 331724.27,-927654.20"/>
    </edge>
    <edge id=":-102145_11" function="internal">
        <lane id=":-102145_11_0" index="0" disallow="tram rail_urban rail rail_electric rail_fast ship" speed="3.65" length="2.34" shape="331724.27,-927654.20 331723.50,-927653.75 331722.06,-927653.74"/>
    </edge>
    <edge id=":-102147_0" function="internal">
        <lane id=":-102147_0_0" index="0" disallow="tram rail_urban rail rail_electric rail_fast ship" speed="13.89" length="19.06" shape="331316.57,-927938.10 331314.80,-927942.12 331312.27,-927946.62 331309.37,-927950.87 331306.48,-927954.14"/>
    </edge>
    <edge id=":-102147_1" function="internal">
        <lane id=":-102147_1_0" index="0" disallow="tram rail_urban rail rail_electric rail_fast ship" speed="13.89" length="20.46" shape="331316.57,-927938.10 331315.46,-927942.58 331314.78,-927948.19 331314.70,-927953.82 331315.37,-927958.34"/>
    </edge>
    <edge id=":-102147_2" function="internal">
        <lane id=":-102147_2_0" index="0" disallow="tram rail_urban rail rail_electric rail_fast ship" speed="7.40" length="9.51" shape="331316.57,-927938.10 331315.21,-927943.86 331316.21,-927947.17 331316.34,-927947.20"/>
    </edge>
    <edge id=":-102147_3" function="internal">
        <lane id=":-102147_3_0" index="0" disallow="tram rail_urban rail rail_electric rail_fast ship" speed="3.65" length="2.48" shape="331316.57,-927938.10 331316.92,-927939.51 331317.53,-927940.15 331317.68,-927940.14"/>
    </edge>
    <edge id=":-102147_16" function="internal">
        <lane id=":-102147_16_0" index="0" disallow="tram rail_urban rail rail_electric rail_fast ship" speed="7.40" length="9.22" shape="331316.34,-927947.20 331319.55,-927948.02 331325.25,-927946.42"/>
    </edge>
    <edge id=":-102147_17" function="internal">
        <lane id=":-102147_17_0" index="0" disallow="tram rail_urban rail rail_electric rail_fast ship" speed="3.65" length="2.19" shape="331317.68,-927940.14 331318.42,-927940.05 331319.58,-927939.20"/>
    </edge>