<?xml version="1.0" encoding="UTF-8"?>

<!-- generated on Tue Apr 28 22:28:10 2020 by Eclipse SUMO netconvert Version 1.5.0
<configuration xmlns:xsi="http://www.w3.org/2001/XMLSchema-instance" xsi:noNamespaceSchemaLocation="http://sumo.dlr.de/xsd/netconvertConfiguration.xsd">

    <input>
        <osm-files value="map.osm"/>
    </input>

    <output>
        <output-file value="mapaja.net.xml"/>
    </output>

    <projection>
        <proj.utm value="true"/>
    </projection>

    <report>
        <aggregate-warnings value="5"/>
    </report>

</configuration>
-->

<net version="1.3" junctionCornerDetail="5" limitTurnSpeed="5.50" xmlns:xsi="http://www.w3.org/2001/XMLSchema-instance" xsi:noNamespaceSchemaLocation="http://sumo.dlr.de/xsd/net_file.xsd">

    <location netOffset="-329165.89,930795.17" convBoundary="0.00,0.00,3395.56,4584.79" origBoundary="115.448347,-8.417527,115.501639,-8.341677" projParameter="+proj=utm +zone=50 +ellps=WGS84 +datum=WGS84 +units=m +no_defs"/>

    <type id="highway.bridleway" priority="1" numLanes="1" speed="2.78" allow="pedestrian" oneway="1" width="2.00"/>
    <type id="highway.bus_guideway" priority="1" numLanes="1" speed="27.78" allow="bus" oneway="1"/>
    <type id="highway.cycleway" priority="1" numLanes="1" speed="8.33" allow="bicycle" oneway="0" width="1.00"/>
    <type id="highway.footway" priority="1" numLanes="1" speed="2.78" allow="pedestrian" oneway="1" width="2.00"/>
    <type id="highway.ford" priority="1" numLanes="1" speed="2.78" allow="army" oneway="0"/>
    <type id="highway.living_street" priority="2" numLanes="1" speed="2.78" disallow="tram rail_urban rail rail_electric rail_fast ship" oneway="0"/>
    <type id="highway.motorway" priority="14" numLanes="2" speed="39.44" allow="private emergency authority army vip passenger hov taxi bus coach delivery truck trailer motorcycle evehicle custom1 custom2" oneway="1"/>
    <type id="highway.motorway_link" priority="9" numLanes="1" speed="22.22" allow="private emergency authority army vip passenger hov taxi bus coach delivery truck trailer motorcycle evehicle custom1 custom2" oneway="1"/>
    <type id="highway.path" priority="1" numLanes="1" speed="2.78" allow="pedestrian bicycle" oneway="1" width="2.00"/>
    <type id="highway.pedestrian" priority="1" numLanes="1" speed="2.78" allow="pedestrian" oneway="1" width="2.00"/>
    <type id="highway.primary" priority="12" numLanes="2" speed="27.78" disallow="tram rail_urban rail rail_electric rail_fast ship" oneway="0"/>
    <type id="highway.primary_link" priority="7" numLanes="1" speed="22.22" disallow="tram rail_urban rail rail_electric rail_fast ship" oneway="0"/>
    <type id="highway.raceway" priority="15" numLanes="2" speed="83.33" allow="vip" oneway="0"/>
    <type id="highway.residential" priority="3" numLanes="1" speed="13.89" disallow="tram rail_urban rail rail_electric rail_fast ship" oneway="0"/>
    <type id="highway.secondary" priority="11" numLanes="1" speed="27.78" disallow="tram rail_urban rail rail_electric rail_fast ship" oneway="0"/>
    <type id="highway.secondary_link" priority="6" numLanes="1" speed="22.22" disallow="tram rail_urban rail rail_electric rail_fast ship" oneway="0"/>
    <type id="highway.service" priority="1" numLanes="1" speed="5.56" allow="pedestrian delivery bicycle" oneway="0"/>
    <type id="highway.stairs" priority="1" numLanes="1" speed="1.39" allow="pedestrian" oneway="1" width="2.00"/>
    <type id="highway.step" priority="1" numLanes="1" speed="1.39" allow="pedestrian" oneway="1" width="2.00"/>
    <type id="highway.steps" priority="1" numLanes="1" speed="1.39" allow="pedestrian" oneway="1" width="2.00"/>
    <type id="highway.tertiary" priority="10" numLanes="1" speed="22.22" disallow="tram rail_urban rail rail_electric rail_fast ship" oneway="0"/>
    <type id="highway.tertiary_link" priority="5" numLanes="1" speed="22.22" disallow="tram rail_urban rail rail_electric rail_fast ship" oneway="0"/>
    <type id="highway.track" priority="1" numLanes="1" speed="5.56" disallow="tram rail_urban rail rail_electric rail_fast ship" oneway="0"/>
    <type id="highway.trunk" priority="13" numLanes="2" speed="27.78" disallow="pedestrian bicycle tram rail_urban rail rail_electric rail_fast ship" oneway="0"/>
    <type id="highway.trunk_link" priority="8" numLanes="1" speed="22.22" disallow="pedestrian bicycle tram rail_urban rail rail_electric rail_fast ship" oneway="0"/>
    <type id="highway.unclassified" priority="4" numLanes="1" speed="13.89" disallow="tram rail_urban rail rail_electric rail_fast ship" oneway="0"/>
    <type id="highway.unsurfaced" priority="1" numLanes="1" speed="8.33" disallow="tram rail_urban rail rail_electric rail_fast ship" oneway="0"/>
    <type id="railway.highspeed" priority="21" numLanes="1" speed="69.44" allow="rail_fast" oneway="1"/>
    <type id="railway.light_rail" priority="19" numLanes="1" speed="27.78" allow="rail_urban" oneway="1"/>
    <type id="railway.preserved" priority="16" numLanes="1" speed="27.78" allow="rail" oneway="1"/>
    <type id="railway.rail" priority="20" numLanes="1" speed="44.44" allow="rail" oneway="1"/>
    <type id="railway.subway" priority="18" numLanes="1" speed="27.78" allow="rail_urban" oneway="1"/>
    <type id="railway.tram" priority="17" numLanes="1" speed="13.89" allow="tram" oneway="1"/>

    <edge id=":1553943673_0" function="internal">
        <lane id=":1553943673_0_0" index="0" disallow="tram rail_urban rail rail_electric rail_fast ship" speed="3.65" length="4.67" shape="16.97,0.06 17.73,-1.17 18.51,-1.60 19.32,-1.23 20.17,-0.06"/>
    </edge>
    <edge id=":1553949743_0" function="internal">
        <lane id=":1553949743_0_0" index="0" disallow="tram rail_urban rail rail_electric rail_fast ship" speed="22.22" length="13.16" shape="2048.01,2716.15 2046.70,2712.95 2045.39,2710.12 2043.92,2707.37 2042.13,2704.40"/>
    </edge>
    <edge id=":1553949743_1" function="internal">
        <lane id=":1553949743_1_0" index="0" disallow="tram rail_urban rail rail_electric rail_fast ship" speed="8.01" length="5.52" shape="2048.01,2716.15 2047.15,2712.50 2047.43,2710.75"/>
    </edge>
    <edge id=":1553949743_2" function="internal">
        <lane id=":1553949743_2_0" index="0" disallow="tram rail_urban rail rail_electric rail_fast ship" speed="3.65" length="2.34" shape="2048.01,2716.15 2048.32,2714.74 2048.92,2714.08"/>
    </edge>
    <edge id=":1553949743_9" function="internal">
        <lane id=":1553949743_9_0" index="0" disallow="tram rail_urban rail rail_electric rail_fast ship" speed="8.01" length="8.23" shape="2047.43,2710.75 2047.64,2709.41 2049.48,2706.88 2052.66,2704.90"/>
    </edge>
    <edge id=":1553949743_10" function="internal">
        <lane id=":1553949743_10_0" index="0" disallow="tram rail_urban rail rail_electric rail_fast ship" speed="3.65" length="2.34" shape="2048.92,2714.08 2049.81,2714.16 2050.99,2714.99"/>
    </edge>
    <edge id=":1553949743_3" function="internal">
        <lane id=":1553949743_3_0" index="0" disallow="tram rail_urban rail rail_electric rail_fast ship" speed="6.51" length="8.75" shape="2053.95,2707.83 2051.92,2709.09 2050.76,2710.70 2050.45,2712.67 2050.99,2714.99"/>
    </edge>
    <edge id=":1553949743_4" function="internal">
        <lane id=":1553949743_4_0" index="0" disallow="tram rail_urban rail rail_electric rail_fast ship" speed="8.29" length="13.63" shape="2053.95,2707.83 2050.37,2708.87 2047.21,2708.64 2044.46,2707.15 2042.13,2704.40"/>
    </edge>
    <edge id=":1553949743_5" function="internal">
        <lane id=":1553949743_5_0" index="0" disallow="tram rail_urban rail rail_electric rail_fast ship" speed="3.65" length="4.67" shape="2053.95,2707.83 2052.53,2707.58 2051.84,2707.01 2051.89,2706.11 2052.66,2704.90"/>
    </edge>
    <edge id=":1553949743_6" function="internal">
        <lane id=":1553949743_6_0" index="0" disallow="tram rail_urban rail rail_electric rail_fast ship" speed="6.85" length="8.99" shape="2044.84,2702.70 2046.37,2704.50 2048.18,2705.46 2050.28,2705.60 2052.66,2704.90"/>
    </edge>
    <edge id=":1553949743_7" function="internal">
        <lane id=":1553949743_7_0" index="0" disallow="tram rail_urban rail rail_electric rail_fast ship" speed="22.22" length="13.76" shape="2044.84,2702.70 2046.67,2705.76 2048.23,2708.69 2049.64,2711.70 2050.99,2714.99"/>
    </edge>
    <edge id=":1553949743_8" function="internal">
        <lane id=":1553949743_8_0" index="0" disallow="tram rail_urban rail rail_electric rail_fast ship" speed="3.65" length="2.34" shape="2044.84,2702.70 2044.80,2704.15 2044.34,2704.91"/>
    </edge>
    <edge id=":1553949743_11" function="internal">
        <lane id=":1553949743_11_0" index="0" disallow="tram rail_urban rail rail_electric rail_fast ship" speed="3.65" length="2.34" shape="2044.34,2704.91 2043.45,2705.00 2042.13,2704.40"/>
    </edge>
    <edge id=":1553949789_0" function="internal">
        <lane id=":1553949789_0_0" index="0" disallow="tram rail_urban rail rail_electric rail_fast ship" speed="18.05" length="16.13" shape="2360.89,3348.91 2358.01,3346.46 2354.18,3344.81 2350.20,3343.29 2346.85,3341.25"/>
    </edge>
    <edge id=":1553949789_1" function="internal">
        <lane id=":1553949789_1_0" index="0" disallow="tram rail_urban rail rail_electric rail_fast ship" speed="22.22" length="19.94" shape="2360.89,3348.91 2358.19,3345.28 2354.80,3341.02 2351.31,3336.83 2348.35,3333.42"/>
    </edge>
    <edge id=":1553949789_2" function="internal">
        <lane id=":1553949789_2_0" index="0" disallow="tram rail_urban rail rail_electric rail_fast ship" speed="7.55" length="5.84" shape="2360.89,3348.91 2358.85,3344.89 2358.86,3343.56"/>
    </edge>
    <edge id=":1553949789_3" function="internal">
        <lane id=":1553949789_3_0" index="0" disallow="tram rail_urban rail rail_electric rail_fast ship" speed="3.65" length="2.34" shape="2360.89,3348.91 2360.86,3347.47 2361.28,3346.68"/>
    </edge>
    <edge id=":1553949789_16" function="internal">
        <lane id=":1553949789_16_0" index="0" disallow="tram rail_urban rail rail_electric rail_fast ship" speed="7.55" length="9.78" shape="2358.86,3343.56 2358.86,3341.59 2360.92,3339.01 2365.02,3337.15"/>
    </edge>
    <edge id=":1553949789_17" function="internal">
        <lane id=":1553949789_17_0" index="0" disallow="tram rail_urban rail rail_electric rail_fast ship" speed="3.65" length="2.34" shape="2361.28,3346.68 2362.17,3346.55 2363.51,3347.07"/>
    </edge>
    <edge id=":1553949789_4" function="internal">
        <lane id=":1553949789_4_0" index="0" disallow="tram rail_urban rail rail_electric rail_fast ship" speed="5.92" length="9.10" shape="2365.92,3340.22 2363.53,3341.30 2362.33,3342.81 2362.32,3344.73 2363.51,3347.07"/>
    </edge>
    <edge id=":1553949789_5" function="internal">
        <lane id=":1553949789_5_0" index="0" disallow="tram rail_urban rail rail_electric rail_fast ship" speed="9.72" length="19.62" shape="2365.92,3340.22 2358.99,3341.96 2353.51,3342.71 2349.46,3342.47 2346.85,3341.25"/>
    </edge>
    <edge id=":1553949789_6" function="internal">
        <lane id=":1553949789_6_0" index="0" disallow="tram rail_urban rail rail_electric rail_fast ship" speed="11.47" length="19.92" shape="2365.92,3340.22 2361.42,3340.79 2356.99,3339.85 2352.63,3337.39 2348.35,3333.42"/>
    </edge>
    <edge id=":1553949789_7" function="internal">
        <lane id=":1553949789_7_0" index="0" disallow="tram rail_urban rail rail_electric rail_fast ship" speed="3.65" length="4.67" shape="2365.92,3340.22 2364.55,3339.79 2363.94,3339.13 2364.10,3338.25 2365.02,3337.15"/>
    </edge>
    <edge id=":1553949789_8" function="internal">
        <lane id=":1553949789_8_0" index="0" disallow="tram rail_urban rail rail_electric rail_fast ship" speed="10.42" length="16.31" shape="2350.73,3331.28 2354.30,3334.63 2357.88,3336.73 2361.45,3337.57 2365.02,3337.15"/>
    </edge>
    <edge id=":1553949789_9" function="internal">
        <lane id=":1553949789_9_0" index="0" disallow="tram rail_urban rail rail_electric rail_fast ship" speed="22.22" length="20.33" shape="2350.73,3331.28 2353.73,3334.74 2357.30,3339.03 2360.78,3343.40 2363.51,3347.07"/>
    </edge>
    <edge id=":1553949789_10" function="internal">
        <lane id=":1553949789_10_0" index="0" disallow="tram rail_urban rail rail_electric rail_fast ship" speed="5.05" length="1.81" shape="2350.73,3331.28 2350.07,3332.96"/>
    </edge>
    <edge id=":1553949789_11" function="internal">
        <lane id=":1553949789_11_0" index="0" disallow="tram rail_urban rail rail_electric rail_fast ship" speed="3.65" length="2.34" shape="2350.73,3331.28 2350.93,3332.71 2350.61,3333.54"/>
    </edge>
    <edge id=":1553949789_18" function="internal">
        <lane id=":1553949789_18_0" index="0" disallow="tram rail_urban rail rail_electric rail_fast ship" speed="5.05" length="8.89" shape="2350.07,3332.96 2346.85,3341.25"/>
    </edge>
    <edge id=":1553949789_19" function="internal">
        <lane id=":1553949789_19_0" index="0" disallow="tram rail_urban rail rail_electric rail_fast ship" speed="3.65" length="2.34" shape="2350.61,3333.54 2349.74,3333.77 2348.35,3333.42"/>
    </edge>
    <edge id=":1553949789_12" function="internal">
        <lane id=":1553949789_12_0" index="0" disallow="tram rail_urban rail rail_electric rail_fast ship" speed="8.69" length="35.99" shape="2346.87,3336.92 2356.67,3345.58 2360.18,3347.88 2357.40,3343.83 2348.35,3333.42"/>
    </edge>
    <edge id=":1553949789_13" function="internal">
        <lane id=":1553949789_13_0" index="0" disallow="tram rail_urban rail rail_electric rail_fast ship" speed="9.72" length="18.80" shape="2346.87,3336.92 2349.72,3338.51 2353.70,3339.08 2358.80,3338.62 2365.02,3337.15"/>
    </edge>
    <edge id=":1553949789_14" function="internal">
        <lane id=":1553949789_14_0" index="0" disallow="tram rail_urban rail rail_electric rail_fast ship" speed="18.05" length="19.59" shape="2346.87,3336.92 2350.62,3339.36 2355.50,3341.73 2360.22,3344.23 2363.51,3347.07"/>
    </edge>
    <edge id=":1553949789_15" function="internal">
        <lane id=":1553949789_15_0" index="0" disallow="tram rail_urban rail rail_electric rail_fast ship" speed="4.06" length="6.31" shape="2346.87,3336.92 2348.49,3338.01 2349.02,3339.09 2348.48,3340.17 2346.85,3341.25"/>
    </edge>
    <edge id=":2471117984_0" function="internal">
        <lane id=":2471117984_0_0" index="0" disallow="tram rail_urban rail rail_electric rail_fast ship" speed="3.65" length="4.67" shape="2363.08,2130.33 2363.59,2128.98 2364.28,2128.41 2365.15,2128.62 2366.20,2129.61"/>
    </edge>
    <edge id=":4486134247_0" function="internal">
        <lane id=":4486134247_0_0" index="0" disallow="tram rail_urban rail rail_electric rail_fast ship" speed="6.49" length="9.20" shape="2745.84,3316.80 2744.70,3314.60 2743.09,3313.32 2741.04,3312.97 2738.52,3313.54"/>
    </edge>
    <edge id=":4486134247_1" function="internal">
        <lane id=":4486134247_1_0" index="0" disallow="tram rail_urban rail rail_electric rail_fast ship" speed="9.72" length="14.60" shape="2745.84,3316.80 2744.59,3313.34 2743.25,3309.98 2741.81,3306.67 2740.23,3303.34"/>
    </edge>
    <edge id=":4486134247_2" function="internal">
        <lane id=":4486134247_2_0" index="0" disallow="tram rail_urban rail rail_electric rail_fast ship" speed="3.65" length="4.67" shape="2745.84,3316.80 2746.21,3315.41 2746.84,3314.77 2747.72,3314.89 2748.87,3315.76"/>
    </edge>
    <edge id=":4486134247_3" function="internal">
        <lane id=":4486134247_3_0" index="0" disallow="tram rail_urban rail rail_electric rail_fast ship" speed="9.72" length="15.00" shape="2743.10,3301.93 2744.70,3305.32 2746.20,3308.75 2747.59,3312.24 2748.87,3315.76"/>
    </edge>
    <edge id=":4486134247_4" function="internal">
        <lane id=":4486134247_4_0" index="0" disallow="tram rail_urban rail rail_electric rail_fast ship" speed="5.56" length="14.56" shape="2743.10,3301.93 2744.35,3305.77 2744.00,3308.99 2742.06,3311.58 2738.52,3313.54"/>
    </edge>
    <edge id=":4486134247_5" function="internal">
        <lane id=":4486134247_5_0" index="0" disallow="tram rail_urban rail rail_electric rail_fast ship" speed="3.65" length="4.67" shape="2743.10,3301.93 2742.91,3303.36 2742.37,3304.07 2741.48,3304.06 2740.23,3303.34"/>
    </edge>
    <edge id=":4486134247_6" function="internal">
        <lane id=":4486134247_6_0" index="0" disallow="tram rail_urban rail rail_electric rail_fast ship" speed="5.56" length="9.04" shape="2737.39,3310.55 2739.58,3309.33 2740.79,3307.73 2741.00,3305.73 2740.23,3303.34"/>
    </edge>
    <edge id=":4486134247_7" function="internal">
        <lane id=":4486134247_7_0" index="0" disallow="tram rail_urban rail rail_electric rail_fast ship" speed="7.99" length="14.48" shape="2737.39,3310.55 2741.32,3309.66 2744.54,3310.23 2747.06,3312.26 2748.87,3315.76"/>
    </edge>
    <edge id=":4486134247_8" function="internal">
        <lane id=":4486134247_8_0" index="0" disallow="tram rail_urban rail rail_electric rail_fast ship" speed="3.65" length="4.67" shape="2737.39,3310.55 2738.79,3310.87 2739.45,3311.48 2739.36,3312.37 2738.52,3313.54"/>
    </edge>
    <edge id=":4486134260_0" function="internal">
        <lane id=":4486134260_0_0" index="0" disallow="tram rail_urban rail rail_electric rail_fast ship" speed="5.56" length="19.75" shape="2666.60,3329.80 2664.09,3326.26 2659.96,3322.87 2655.35,3319.87 2651.41,3317.55"/>
    </edge>
    <edge id=":4486134260_1" function="internal">
        <lane id=":4486134260_1_0" index="0" disallow="tram rail_urban rail rail_electric rail_fast ship" speed="5.56" length="21.14" shape="2666.60,3329.80 2664.66,3325.52 2661.91,3320.34 2659.01,3315.24 2656.63,3311.17"/>
    </edge>
    <edge id=":4486134260_2" function="internal">
        <lane id=":4486134260_2_0" index="0" disallow="tram rail_urban rail rail_electric rail_fast ship" speed="3.65" length="4.67" shape="2666.60,3329.80 2666.93,3328.39 2667.54,3327.74 2668.42,3327.83 2669.59,3328.68"/>
    </edge>
    <edge id=":4486134260_3" function="internal">
        <lane id=":4486134260_3_0" index="0" disallow="tram rail_urban rail rail_electric rail_fast ship" speed="5.56" length="21.70" shape="2659.39,3309.55 2661.81,3313.70 2664.79,3318.97 2667.62,3324.32 2669.59,3328.68"/>
    </edge>
    <edge id=":4486134260_4" function="internal">
        <lane id=":4486134260_4_0" index="0" disallow="tram rail_urban rail rail_electric rail_fast ship" speed="5.56" length="15.39" shape="2659.39,3309.55 2660.25,3313.53 2658.62,3316.77 2655.39,3318.40 2651.41,3317.55"/>
    </edge>
    <edge id=":4486134260_5" function="internal">
        <lane id=":4486134260_5_0" index="0" disallow="tram rail_urban rail rail_electric rail_fast ship" speed="3.65" length="4.67" shape="2659.39,3309.55 2659.31,3310.99 2658.82,3311.74 2657.93,3311.80 2656.63,3311.17"/>
    </edge>
    <edge id=":4486134260_6" function="internal">
        <lane id=":4486134260_6_0" index="0" disallow="tram rail_urban rail rail_electric rail_fast ship" speed="5.54" length="11.35" shape="2653.02,3314.79 2656.54,3316.49 2658.31,3316.46 2658.34,3314.68 2656.63,3311.17"/>
    </edge>
    <edge id=":4486134260_7" function="internal">
        <lane id=":4486134260_7_0" index="0" disallow="tram rail_urban rail rail_electric rail_fast ship" speed="5.56" length="21.84" shape="2653.02,3314.79 2657.19,3317.37 2662.27,3320.92 2666.87,3324.89 2669.59,3328.68"/>
    </edge>
    <edge id=":4486134260_8" function="internal">
        <lane id=":4486134260_8_0" index="0" disallow="tram rail_urban rail rail_electric rail_fast ship" speed="3.65" length="4.67" shape="2653.02,3314.79 2653.65,3316.09 2653.59,3316.98 2652.84,3317.47 2651.41,3317.55"/>
    </edge>
    <edge id=":4486134396_0" function="internal">
        <lane id=":4486134396_0_0" index="0" disallow="tram rail_urban rail rail_electric rail_fast ship" speed="5.56" length="9.04" shape="2472.34,2799.11 2471.20,2796.89 2469.63,2795.62 2467.63,2795.31 2465.22,2795.95"/>
    </edge>
    <edge id=":4486134396_1" function="internal">
        <lane id=":4486134396_1_0" index="0" disallow="tram rail_urban rail rail_electric rail_fast ship" speed="5.56" length="14.02" shape="2472.34,2799.11 2471.25,2795.68 2470.41,2792.37 2469.84,2789.01 2469.54,2785.42"/>
    </edge>
    <edge id=":4486134396_2" function="internal">
        <lane id=":4486134396_2_0" index="0" disallow="tram rail_urban rail rail_electric rail_fast ship" speed="3.65" length="4.67" shape="2472.34,2799.11 2472.71,2797.72 2473.33,2797.08 2474.22,2797.19 2475.37,2798.06"/>
    </edge>
    <edge id=":4486134396_3" function="internal">
        <lane id=":4486134396_3_0" index="0" disallow="tram rail_urban rail rail_electric rail_fast ship" speed="5.56" length="13.11" shape="2472.74,2785.28 2473.01,2788.72 2473.52,2791.77 2474.30,2794.77 2475.37,2798.06"/>
    </edge>
    <edge id=":4486134396_4" function="internal">
        <lane id=":4486134396_4_0" index="0" disallow="tram rail_urban rail rail_electric rail_fast ship" speed="5.56" length="13.98" shape="2472.74,2785.28 2472.39,2788.69 2471.02,2791.61 2468.63,2794.03 2465.22,2795.95"/>
    </edge>
    <edge id=":4486134396_5" function="internal">
        <lane id=":4486134396_5_0" index="0" disallow="tram rail_urban rail rail_electric rail_fast ship" speed="3.65" length="4.67" shape="2472.74,2785.28 2471.99,2786.51 2471.21,2786.95 2470.39,2786.59 2469.54,2785.42"/>
    </edge>
    <edge id=":4486134396_6" function="internal">
        <lane id=":4486134396_6_0" index="0" disallow="tram rail_urban rail rail_electric rail_fast ship" speed="5.56" length="10.07" shape="2463.96,2793.01 2466.49,2791.61 2468.26,2789.87 2469.28,2787.81 2469.54,2785.42"/>
    </edge>
    <edge id=":4486134396_7" function="internal">
        <lane id=":4486134396_7_0" index="0" disallow="tram rail_urban rail rail_electric rail_fast ship" speed="5.56" length="14.46" shape="2463.96,2793.01 2467.83,2791.98 2471.02,2792.48 2473.53,2794.51 2475.37,2798.06"/>
    </edge>
    <edge id=":4486134396_8" function="internal">
        <lane id=":4486134396_8_0" index="0" disallow="tram rail_urban rail rail_electric rail_fast ship" speed="3.65" length="4.67" shape="2463.96,2793.01 2465.38,2793.27 2466.06,2793.85 2466.01,2794.75 2465.22,2795.95"/>
    </edge>
    <edge id=":4486134440_0" function="internal">
        <lane id=":4486134440_0_0" index="0" allow="pedestrian bicycle" speed="4.17" length="13.49" width="2.00" shape="2298.43,2571.61 2300.25,2574.46 2302.71,2576.36 2305.82,2577.33 2309.57,2577.35"/>
    </edge>
    <edge id=":4486134440_1" function="internal">
        <lane id=":4486134440_1_0" index="0" disallow="tram rail_urban rail rail_electric rail_fast ship" speed="5.56" length="13.54" shape="2298.43,2571.61 2299.46,2575.15 2299.15,2578.22 2297.51,2580.84 2294.54,2583.00"/>
    </edge>
    <edge id=":4486134440_2" function="internal">
        <lane id=":4486134440_2_0" index="0" disallow="tram rail_urban rail rail_electric rail_fast ship" speed="3.65" length="4.67" shape="2298.43,2571.61 2298.20,2573.04 2297.63,2573.73 2296.74,2573.69 2295.51,2572.93"/>
    </edge>
    <edge id=":4486134440_3" function="internal">
        <lane id=":4486134440_3_0" index="0" disallow="tram rail_urban rail rail_electric rail_fast ship" speed="5.56" length="8.62" shape="2293.03,2580.18 2294.93,2578.80 2295.97,2577.13 2296.17,2575.18 2295.51,2572.93"/>
    </edge>
    <edge id=":4486134440_4" function="internal">
        <lane id=":4486134440_4_0" index="0" allow="pedestrian bicycle" speed="4.17" length="16.86" width="2.00" shape="2293.03,2580.18 2296.78,2578.82 2301.09,2578.09 2305.51,2577.69 2309.57,2577.35"/>
    </edge>
    <edge id=":4486134440_5" function="internal">
        <lane id=":4486134440_5_0" index="0" disallow="tram rail_urban rail rail_electric rail_fast ship" speed="3.65" length="4.67" shape="2293.03,2580.18 2294.47,2580.32 2295.20,2580.84 2295.22,2581.73 2294.54,2583.00"/>
    </edge>
    <edge id=":4486134513_0" function="internal">
        <lane id=":4486134513_0_0" index="0" disallow="tram rail_urban rail rail_electric rail_fast ship" speed="5.56" length="17.99" shape="2527.06,3296.25 2523.42,3298.31 2518.96,3300.00 2514.33,3301.27 2510.17,3302.08"/>
    </edge>
    <edge id=":4486134513_1" function="internal">
        <lane id=":4486134513_1_0" index="0" disallow="tram rail_urban rail rail_electric rail_fast ship" speed="9.62" length="17.32" shape="2527.06,3296.25 2523.72,3297.79 2520.00,3297.75 2515.90,3296.13 2511.40,3292.93"/>
    </edge>
    <edge id=":4486134513_2" function="internal">
        <lane id=":4486134513_2_0" index="0" disallow="tram rail_urban rail rail_electric rail_fast ship" speed="3.65" length="4.67" shape="2527.06,3296.25 2525.61,3296.32 2524.82,3295.92 2524.66,3295.04 2525.15,3293.68"/>
    </edge>
    <edge id=":4486134513_3" function="internal">
        <lane id=":4486134513_3_0" index="0" disallow="tram rail_urban rail rail_electric rail_fast ship" speed="8.40" length="13.01" shape="2513.48,3290.49 2517.00,3293.06 2520.11,3294.45 2522.83,3294.66 2525.15,3293.68"/>
    </edge>
    <edge id=":4486134513_4" function="internal">
        <lane id=":4486134513_4_0" index="0" disallow="tram rail_urban rail rail_electric rail_fast ship" speed="7.39" length="18.50" shape="2513.48,3290.49 2517.43,3294.75 2518.19,3298.10 2515.77,3300.55 2510.17,3302.08"/>
    </edge>
    <edge id=":4486134513_5" function="internal">
        <lane id=":4486134513_5_0" index="0" disallow="tram rail_urban rail rail_electric rail_fast ship" speed="3.65" length="4.67" shape="2513.48,3290.49 2513.87,3291.88 2513.66,3292.75 2512.84,3293.10 2511.40,3292.93"/>
    </edge>
    <edge id=":4486134513_6" function="internal">
        <lane id=":4486134513_6_0" index="0" disallow="tram rail_urban rail rail_electric rail_fast ship" speed="5.51" length="9.55" shape="2509.69,3298.91 2512.59,3298.12 2513.84,3296.86 2513.44,3295.13 2511.40,3292.93"/>
    </edge>
    <edge id=":4486134513_7" function="internal">
        <lane id=":4486134513_7_0" index="0" disallow="tram rail_urban rail rail_electric rail_fast ship" speed="5.56" length="16.45" shape="2509.69,3298.91 2513.63,3298.20 2517.77,3297.13 2521.74,3295.65 2525.15,3293.68"/>
    </edge>
    <edge id=":4486134513_8" function="internal">
        <lane id=":4486134513_8_0" index="0" disallow="tram rail_urban rail rail_electric rail_fast ship" speed="3.65" length="4.67" shape="2509.69,3298.91 2511.00,3299.53 2511.51,3300.26 2511.23,3301.11 2510.17,3302.08"/>
    </edge>
    <edge id=":4486134531_0" function="internal">
        <lane id=":4486134531_0_0" index="0" disallow="tram rail_urban rail rail_electric rail_fast ship" speed="22.22" length="5.21" shape="2471.34,3487.89 2470.32,3486.73 2469.61,3485.94 2468.86,3485.19 2467.73,3484.14"/>
    </edge>
    <edge id=":4486134531_1" function="internal">
        <lane id=":4486134531_1_0" index="0" disallow="tram rail_urban rail rail_electric rail_fast ship" speed="3.65" length="2.34" shape="2471.34,3487.89 2471.15,3486.46 2471.49,3485.63"/>
    </edge>
    <edge id=":4486134531_6" function="internal">
        <lane id=":4486134531_6_0" index="0" disallow="tram rail_urban rail rail_electric rail_fast ship" speed="3.65" length="2.34" shape="2471.49,3485.63 2472.36,3485.41 2473.75,3485.79"/>
    </edge>
    <edge id=":4486134531_2" function="internal">
        <lane id=":4486134531_2_0" index="0" disallow="tram rail_urban rail rail_electric rail_fast ship" speed="22.22" length="5.58" shape="2469.88,3481.77 2471.10,3482.89 2471.90,3483.69 2472.66,3484.54 2473.75,3485.79"/>
    </edge>
    <edge id=":4486134531_3" function="internal">
        <lane id=":4486134531_3_0" index="0" disallow="tram rail_urban rail rail_electric rail_fast ship" speed="3.65" length="2.34" shape="2469.88,3481.77 2470.23,3483.17 2469.99,3484.03"/>
    </edge>
    <edge id=":4486134531_7" function="internal">
        <lane id=":4486134531_7_0" index="0" disallow="tram rail_urban rail rail_electric rail_fast ship" speed="3.65" length="2.34" shape="2469.99,3484.03 2469.15,3484.36 2467.73,3484.14"/>
    </edge>
    <edge id=":4486134531_4" function="internal">
        <lane id=":4486134531_4_0" index="0" allow="pedestrian bicycle" speed="4.88" length="4.74" shape="2467.44,3488.38 2468.23,3487.13 2468.54,3486.00 2468.37,3485.01 2467.73,3484.14"/>
    </edge>
    <edge id=":4486134531_5" function="internal">
        <lane id=":4486134531_5_0" index="0" allow="pedestrian bicycle" speed="5.62" length="7.84" shape="2467.44,3488.38 2469.35,3486.28 2471.04,3485.14 2472.51,3484.98 2473.75,3485.79"/>
    </edge>
    <edge id=":4486134560_0" function="internal">
        <lane id=":4486134560_0_0" index="0" disallow="tram rail_urban rail rail_electric rail_fast ship" speed="9.75" length="11.12" shape="2210.03,2695.56 2208.81,2692.67 2207.22,2690.36 2205.26,2688.65 2202.93,2687.53"/>
    </edge>
    <edge id=":4486134560_1" function="internal">
        <lane id=":4486134560_1_0" index="0" disallow="tram rail_urban rail rail_electric rail_fast ship" speed="9.72" length="15.96" shape="2210.03,2695.56 2209.35,2691.77 2209.44,2687.72 2210.01,2683.64 2210.75,2679.77"/>
    </edge>
    <edge id=":4486134560_2" function="internal">
        <lane id=":4486134560_2_0" index="0" disallow="tram rail_urban rail rail_electric rail_fast ship" speed="7.89" length="4.23" shape="2210.03,2695.56 2209.56,2691.82 2209.76,2691.39"/>
    </edge>
    <edge id=":4486134560_3" function="internal">
        <lane id=":4486134560_3_0" index="0" disallow="tram rail_urban rail rail_electric rail_fast ship" speed="3.68" length="1.87" shape="2210.03,2695.56 2210.72,2694.25 2211.06,2694.04"/>
    </edge>
    <edge id=":4486134560_16" function="internal">
        <lane id=":4486134560_16_0" index="0" disallow="tram rail_urban rail rail_electric rail_fast ship" speed="7.89" length="11.45" shape="2209.76,2691.39 2210.88,2688.92 2213.97,2686.88 2218.85,2685.68"/>
    </edge>