<?xml version="1.0" encoding="UTF-8"?>

<!-- generated on Wed 29 Apr 2020 12:40:01 AM WITA by Eclipse SUMO netedit Version 1.5.0
<configuration xmlns:xsi="http://www.w3.org/2001/XMLSchema-instance" xsi:noNamespaceSchemaLocation="http://sumo.dlr.de/xsd/netconvertConfiguration.xsd">

    <input>
        <sumo-net-file value="mau_sebudi_edit.net.xml"/>
    </input>

    <output>
        <output-file value="mau_sebudi_edit.net.xml"/>
    </output>

    <processing>
        <geometry.min-radius.fix.railways value="false"/>
        <geometry.max-grade.fix value="false"/>
        <offset.disable-normalization value="true"/>
        <lefthand value="false"/>
    </processing>

    <junctions>
        <no-turnarounds value="true"/>
        <junctions.corner-detail value="5"/>
        <junctions.limit-turn-speed value="5.5"/>
        <rectangular-lane-cut value="false"/>
    </junctions>

    <pedestrian>
        <walkingareas value="false"/>
    </pedestrian>

    <report>
        <aggregate-warnings value="5"/>
    </report>

</configuration>
-->

<net version="1.3" junctionCornerDetail="5" limitTurnSpeed="5.50" xmlns:xsi="http://www.w3.org/2001/XMLSchema-instance" xsi:noNamespaceSchemaLocation="http://sumo.dlr.de/xsd/net_file.xsd">

    <location netOffset="-331293.64,934455.71" convBoundary="0.00,0.00,6198.80,7697.84" origBoundary="115.462269,-8.450860,115.523836,-8.341677" projParameter="+proj=utm +zone=50 +ellps=WGS84 +datum=WGS84 +units=m +no_defs"/>

    <type id="highway.bridleway" priority="1" numLanes="1" speed="2.78" allow="pedestrian" oneway="1" width="2.00"/>
    <type id="highway.bus_guideway" priority="1" numLanes="1" speed="27.78" allow="bus" oneway="1"/>
    <type id="highway.cycleway" priority="1" numLanes="1" speed="8.33" allow="bicycle" oneway="0" width="1.00"/>
    <type id="highway.footway" priority="1" numLanes="1" speed="2.78" allow="pedestrian" oneway="1" width="2.00"/>
    <type id="highway.ford" priority="1" numLanes="1" speed="2.78" allow="army" oneway="0"/>
    <type id="highway.living_street" priority="2" numLanes="1" speed="2.78" disallow="tram rail_urban rail rail_electric rail_fast ship" oneway="0"/>
    <type id="highway.motorway" priority="14" numLanes="2" speed="39.44" allow="private emergency authority army vip passenger hov taxi bus coach delivery truck trailer motorcycle evehicle custom1 custom2" oneway="1"/>
    <type id="highway.motorway_link" priority="9" numLanes="1" speed="22.22" allow="private emergency authority army vip passenger hov taxi bus coach delivery truck trailer motorcycle evehicle custom1 custom2" oneway="1"/>
    <type id="highway.path" priority="1" numLanes="1" speed="2.78" allow="pedestrian bicycle" oneway="1" width="2.00"/>
    <type id="highway.pedestrian" priority="1" numLanes="1" speed="2.78" allow="pedestrian" oneway="1" width="2.00"/>
    <type id="highway.primary" priority="12" numLanes="2" speed="27.78" disallow="tram rail_urban rail rail_electric rail_fast ship" oneway="0"/>
    <type id="highway.primary_link" priority="7" numLanes="1" speed="22.22" disallow="tram rail_urban rail rail_electric rail_fast ship" oneway="0"/>
    <type id="highway.raceway" priority="15" numLanes="2" speed="83.33" allow="vip" oneway="0"/>
    <type id="highway.residential" priority="3" numLanes="1" speed="13.89" disallow="tram rail_urban rail rail_electric rail_fast ship" oneway="0"/>
    <type id="highway.secondary" priority="11" numLanes="1" speed="27.78" disallow="tram rail_urban rail rail_electric rail_fast ship" oneway="0"/>
    <type id="highway.secondary_link" priority="6" numLanes="1" speed="22.22" disallow="tram rail_urban rail rail_electric rail_fast ship" oneway="0"/>
    <type id="highway.service" priority="1" numLanes="1" speed="5.56" allow="pedestrian delivery bicycle" oneway="0"/>
    <type id="highway.stairs" priority="1" numLanes="1" speed="1.39" allow="pedestrian" oneway="1" width="2.00"/>
    <type id="highway.step" priority="1" numLanes="1" speed="1.39" allow="pedestrian" oneway="1" width="2.00"/>
    <type id="highway.steps" priority="1" numLanes="1" speed="1.39" allow="pedestrian" oneway="1" width="2.00"/>
    <type id="highway.tertiary" priority="10" numLanes="1" speed="22.22" disallow="tram rail_urban rail rail_electric rail_fast ship" oneway="0"/>
    <type id="highway.tertiary_link" priority="5" numLanes="1" speed="22.22" disallow="tram rail_urban rail rail_electric rail_fast ship" oneway="0"/>
    <type id="highway.track" priority="1" numLanes="1" speed="5.56" disallow="tram rail_urban rail rail_electric rail_fast ship" oneway="0"/>
    <type id="highway.trunk" priority="13" numLanes="2" speed="27.78" disallow="pedestrian bicycle tram rail_urban rail rail_electric rail_fast ship" oneway="0"/>
    <type id="highway.trunk_link" priority="8" numLanes="1" speed="22.22" disallow="pedestrian bicycle tram rail_urban rail rail_electric rail_fast ship" oneway="0"/>
    <type id="highway.unclassified" priority="4" numLanes="1" speed="13.89" disallow="tram rail_urban rail rail_electric rail_fast ship" oneway="0"/>
    <type id="highway.unsurfaced" priority="1" numLanes="1" speed="8.33" disallow="tram rail_urban rail rail_electric rail_fast ship" oneway="0"/>
    <type id="railway.highspeed" priority="21" numLanes="1" speed="69.44" allow="rail_fast" oneway="1"/>
    <type id="railway.light_rail" priority="19" numLanes="1" speed="27.78" allow="rail_urban" oneway="1"/>
    <type id="railway.preserved" priority="16" numLanes="1" speed="27.78" allow="rail" oneway="1"/>
    <type id="railway.rail" priority="20" numLanes="1" speed="44.44" allow="rail" oneway="1"/>
    <type id="railway.subway" priority="18" numLanes="1" speed="27.78" allow="rail_urban" oneway="1"/>
    <type id="railway.tram" priority="17" numLanes="1" speed="13.89" allow="tram" oneway="1"/>

    <edge id=":-102039_0" function="internal">
        <lane id=":-102039_0_0" index="0" disallow="tram rail_urban rail rail_electric rail_fast ship" speed="10.12" length="8.71" shape="844.14,7603.42 841.62,7603.86 839.91,7604.47 838.50,7605.57 836.84,7607.51"/>
    </edge>
    <edge id=":-102039_1" function="internal">
        <lane id=":-102039_1_0" index="0" disallow="tram rail_urban rail rail_electric rail_fast ship" speed="8.12" length="4.73" shape="844.14,7603.42 841.16,7603.48 839.49,7602.96"/>
    </edge>
    <edge id=":-102039_2" function="internal">
        <lane id=":-102039_2_0" index="0" disallow="tram rail_urban rail rail_electric rail_fast ship" speed="3.65" length="2.34" shape="844.14,7603.42 842.84,7602.81 842.32,7602.08"/>
    </edge>
    <edge id=":-102039_9" function="internal">
        <lane id=":-102039_9_0" index="0" disallow="tram rail_urban rail rail_electric rail_fast ship" speed="8.12" length="6.54" shape="839.49,7602.96 838.63,7602.69 836.54,7601.05 834.91,7598.56"/>
    </edge>
    <edge id=":-102039_10" function="internal">
        <lane id=":-102039_10_0" index="0" disallow="tram rail_urban rail rail_electric rail_fast ship" speed="3.65" length="2.34" shape="842.32,7602.08 842.60,7601.22 843.66,7600.25"/>
    </edge>
    <edge id=":-102039_3" function="internal">
        <lane id=":-102039_3_0" index="0" disallow="tram rail_urban rail rail_electric rail_fast ship" speed="6.60" length="7.17" shape="837.78,7597.16 838.83,7598.75 840.15,7599.79 841.77,7600.29 843.66,7600.25"/>
    </edge>
    <edge id=":-102039_4" function="internal">
        <lane id=":-102039_4_0" index="0" disallow="tram rail_urban rail rail_electric rail_fast ship" speed="8.65" length="11.00" shape="837.78,7597.16 838.76,7599.94 838.93,7602.58 838.29,7605.11 836.84,7607.51"/>
    </edge>
    <edge id=":-102039_5" function="internal">
        <lane id=":-102039_5_0" index="0" disallow="tram rail_urban rail rail_electric rail_fast ship" speed="3.65" length="4.67" shape="837.78,7597.16 837.59,7598.59 837.04,7599.30 836.15,7599.29 834.91,7598.56"/>
    </edge>
    <edge id=":-102039_6" function="internal">
        <lane id=":-102039_6_0" index="0" disallow="tram rail_urban rail rail_electric rail_fast ship" speed="7.19" length="7.40" shape="834.33,7605.52 835.29,7603.93 835.70,7602.23 835.57,7600.44 834.91,7598.56"/>
    </edge>
    <edge id=":-102039_7" function="internal">
        <lane id=":-102039_7_0" index="0" disallow="tram rail_urban rail rail_electric rail_fast ship" speed="11.37" length="11.11" shape="834.33,7605.52 836.40,7603.15 838.31,7601.70 840.55,7600.84 843.66,7600.25"/>
    </edge>
    <edge id=":-102039_8" function="internal">
        <lane id=":-102039_8_0" index="0" disallow="tram rail_urban rail rail_electric rail_fast ship" speed="3.65" length="2.34" shape="834.33,7605.52 835.70,7605.08 836.58,7605.26"/>
    </edge>
    <edge id=":-102039_11" function="internal">
        <lane id=":-102039_11_0" index="0" disallow="tram rail_urban rail rail_electric rail_fast ship" speed="3.65" length="2.34" shape="836.58,7605.26 836.96,7606.07 836.84,7607.51"/>
    </edge>
    <edge id=":-102045_0" function="internal">
        <lane id=":-102045_0_0" index="0" allow="pedestrian bicycle" speed="2.78" length="4.70" width="2.00" shape="441.76,6834.98 441.68,6833.61 441.42,6832.70 440.94,6831.84 440.17,6830.68"/>
    </edge>
    <edge id=":-102045_1" function="internal">
        <lane id=":-102045_1_0" index="0" allow="pedestrian bicycle" speed="2.78" length="4.66" width="2.00" shape="441.76,6834.98 441.83,6833.63 442.12,6832.73 442.67,6831.92 443.54,6830.84"/>
    </edge>
    <edge id=":-102047_0" function="internal">
        <lane id=":-102047_0_0" index="0" allow="pedestrian bicycle" speed="2.78" length="5.20" width="2.00" shape="364.22,6695.85 363.52,6694.47 363.09,6693.51 362.72,6692.51 362.22,6691.06"/>
    </edge>
    <edge id=":-102047_1" function="internal">
        <lane id=":-102047_1_0" index="0" allow="pedestrian bicycle" speed="2.78" length="4.40" width="2.00" shape="360.12,6693.52 361.44,6693.58 362.23,6693.19 362.49,6692.35 362.22,6691.06"/>
    </edge>
    <edge id=":-102048_0" function="internal">
        <lane id=":-102048_0_0" index="0" allow="pedestrian bicycle" speed="2.78" length="5.01" width="2.00" shape="338.44,6623.86 337.95,6622.46 337.59,6621.50 337.17,6620.57 336.49,6619.25"/>
    </edge>
    <edge id=":-102048_1" function="internal">
        <lane id=":-102048_1_0" index="0" allow="pedestrian bicycle" speed="2.78" length="4.53" width="2.00" shape="340.38,6621.10 339.04,6620.99 337.95,6620.65 337.10,6620.07 336.49,6619.25"/>
    </edge>
    <edge id=":-102049_0" function="internal">
        <lane id=":-102049_0_0" index="0" allow="pedestrian bicycle" speed="4.17" length="4.60" shape="268.56,6489.32 267.78,6488.15 266.91,6487.44 265.95,6487.20 264.90,6487.43"/>
    </edge>
    <edge id=":-102049_1" function="internal">
        <lane id=":-102049_1_0" index="0" allow="pedestrian bicycle" speed="4.17" length="7.55" shape="268.56,6489.32 267.43,6486.77 267.00,6484.79 267.27,6483.38 268.25,6482.53"/>
    </edge>
    <edge id=":-102049_2" function="internal">
        <lane id=":-102049_2_0" index="0" disallow="tram rail_urban rail rail_electric rail_fast ship" speed="5.56" length="5.01" shape="269.50,6485.47 264.90,6487.43"/>
    </edge>
    <edge id=":-102049_3" function="internal">
        <lane id=":-102049_3_0" index="0" disallow="tram rail_urban rail rail_electric rail_fast ship" speed="3.65" length="2.34" shape="269.50,6485.47 268.08,6485.21 267.40,6484.63"/>
    </edge>
    <edge id=":-102049_6" function="internal">
        <lane id=":-102049_6_0" index="0" disallow="tram rail_urban rail rail_electric rail_fast ship" speed="3.65" length="2.34" shape="267.40,6484.63 267.46,6483.73 268.25,6482.53"/>
    </edge>
    <edge id=":-102049_4" function="internal">
        <lane id=":-102049_4_0" index="0" disallow="tram rail_urban rail rail_electric rail_fast ship" speed="5.56" length="5.01" shape="263.64,6484.49 268.25,6482.53"/>
    </edge>
    <edge id=":-102049_5" function="internal">
        <lane id=":-102049_5_0" index="0" disallow="tram rail_urban rail rail_electric rail_fast ship" speed="3.65" length="2.34" shape="263.64,6484.49 265.06,6484.76 265.74,6485.34"/>
    </edge>
    <edge id=":-102049_7" function="internal">
        <lane id=":-102049_7_0" index="0" disallow="tram rail_urban rail rail_electric rail_fast ship" speed="3.65" length="2.34" shape="265.74,6485.34 265.69,6486.23 264.90,6487.43"/>
    </edge>
    <edge id=":-102055_0" function="internal">
        <lane id=":-102055_0_0" index="0" allow="pedestrian bicycle" speed="2.78" length="5.26" width="2.00" shape="206.54,6826.13 207.93,6826.85 208.91,6827.32 209.94,6827.60 211.48,6827.73"/>
    </edge>
    <edge id=":-102055_1" function="internal">
        <lane id=":-102055_1_0" index="0" allow="pedestrian bicycle" speed="2.78" length="5.24" width="2.00" shape="206.56,6829.25 207.94,6828.52 208.92,6828.03 209.95,6827.77 211.48,6827.73"/>
    </edge>
    <edge id=":-102061_0" function="internal">
        <lane id=":-102061_0_0" index="0" disallow="tram rail_urban rail rail_electric rail_fast ship" speed="13.89" length="5.04" shape="286.64,6815.22 283.78,6811.06"/>
    </edge>
    <edge id=":-102061_1" function="internal">
        <lane id=":-102061_1_0" index="0" disallow="tram rail_urban rail rail_electric rail_fast ship" speed="3.65" length="2.34" shape="286.64,6815.22 286.62,6813.77 287.05,6812.99"/>
    </edge>
    <edge id=":-102061_6" function="internal">
        <lane id=":-102061_6_0" index="0" disallow="tram rail_urban rail rail_electric rail_fast ship" speed="3.65" length="2.34" shape="287.05,6812.99 287.93,6812.87 289.27,6813.40"/>
    </edge>
    <edge id=":-102061_2" function="internal">
        <lane id=":-102061_2_0" index="0" disallow="tram rail_urban rail rail_electric rail_fast ship" speed="13.89" length="5.04" shape="286.42,6809.25 289.27,6813.40"/>
    </edge>
    <edge id=":-102061_3" function="internal">
        <lane id=":-102061_3_0" index="0" disallow="tram rail_urban rail rail_electric rail_fast ship" speed="3.65" length="2.34" shape="286.42,6809.25 286.44,6810.69 286.01,6811.48"/>
    </edge>
    <edge id=":-102061_7" function="internal">
        <lane id=":-102061_7_0" index="0" disallow="tram rail_urban rail rail_electric rail_fast ship" speed="3.65" length="2.34" shape="286.01,6811.48 285.12,6811.60 283.78,6811.06"/>
    </edge>
    <edge id=":-102061_4" function="internal">
        <lane id=":-102061_4_0" index="0" allow="pedestrian bicycle" speed="4.46" length="4.70" shape="282.33,6814.72 283.57,6814.00 284.22,6813.15 284.29,6812.17 283.78,6811.06"/>
    </edge>
    <edge id=":-102061_5" function="internal">
        <lane id=":-102061_5_0" index="0" allow="pedestrian bicycle" speed="6.24" length="7.32" shape="282.33,6814.72 285.04,6813.66 287.10,6813.09 288.51,6813.00 289.27,6813.40"/>
    </edge>
    <edge id=":1553949789_0" function="internal">
        <lane id=":1553949789_0_0" index="0" disallow="tram rail_urban rail rail_electric rail_fast ship" speed="22.22" length="14.26" shape="233.13,7009.45 231.03,7006.48 228.94,7003.68 226.76,7000.94 224.39,6998.19"/>
    </edge>
    <edge id=":1553949789_1" function="internal">
        <lane id=":1553949789_1_0" index="0" disallow="tram rail_urban rail rail_electric rail_fast ship" speed="7.55" length="6.02" shape="233.13,7009.45 231.10,7005.43 231.10,7003.91"/>
    </edge>
    <edge id=":1553949789_2" function="internal">
        <lane id=":1553949789_2_0" index="0" disallow="tram rail_urban rail rail_electric rail_fast ship" speed="3.65" length="2.34" shape="233.13,7009.45 233.10,7008.01 233.53,7007.22"/>
    </edge>
    <edge id=":1553949789_9" function="internal">
        <lane id=":1553949789_9_0" index="0" disallow="tram rail_urban rail rail_electric rail_fast ship" speed="7.55" length="9.59" shape="231.10,7003.91 231.11,7002.13 233.16,6999.55 237.27,6997.69"/>
    </edge>
    <edge id=":1553949789_10" function="internal">
        <lane id=":1553949789_10_0" index="0" disallow="tram rail_urban rail rail_electric rail_fast ship" speed="3.65" length="2.34" shape="233.53,7007.22 234.41,7007.09 235.76,7007.62"/>
    </edge>
    <edge id=":1553949789_3" function="internal">
        <lane id=":1553949789_3_0" index="0" disallow="tram rail_urban rail rail_electric rail_fast ship" speed="5.92" length="9.10" shape="238.17,7000.76 235.77,7001.85 234.57,7003.35 234.57,7005.27 235.76,7007.62"/>
    </edge>
    <edge id=":1553949789_4" function="internal">
        <lane id=":1553949789_4_0" index="0" disallow="tram rail_urban rail rail_electric rail_fast ship" speed="9.94" length="14.81" shape="238.17,7000.76 233.90,7001.60 230.18,7001.45 227.01,7000.31 224.39,6998.19"/>
    </edge>
    <edge id=":1553949789_5" function="internal">
        <lane id=":1553949789_5_0" index="0" disallow="tram rail_urban rail rail_electric rail_fast ship" speed="3.65" length="4.67" shape="238.17,7000.76 236.79,7000.33 236.18,6999.68 236.34,6998.80 237.27,6997.69"/>
    </edge>
    <edge id=":1553949789_6" function="internal">
        <lane id=":1553949789_6_0" index="0" disallow="tram rail_urban rail rail_electric rail_fast ship" speed="8.71" length="11.20" shape="226.77,6996.05 228.68,6997.55 231.07,6998.33 233.93,6998.37 237.27,6997.69"/>
    </edge>
    <edge id=":1553949789_7" function="internal">
        <lane id=":1553949789_7_0" index="0" disallow="tram rail_urban rail rail_electric rail_fast ship" speed="22.22" length="14.65" shape="226.77,6996.05 229.18,6998.85 231.44,7001.69 233.61,7004.60 235.76,7007.62"/>
    </edge>
    <edge id=":1553949789_8" function="internal">
        <lane id=":1553949789_8_0" index="0" disallow="tram rail_urban rail rail_electric rail_fast ship" speed="3.65" length="2.34" shape="226.77,6996.05 226.98,6997.48 226.65,6998.31"/>
    </edge>
    <edge id=":1553949789_11" function="internal">
        <lane id=":1553949789_11_0" index="0" disallow="tram rail_urban rail rail_electric rail_fast ship" speed="3.65" length="2.34" shape="226.65,6998.31 225.79,6998.55 224.39,6998.19"/>
    </edge>
    <edge id=":1553949800_0" function="internal">
        <lane id=":1553949800_0_0" index="0" disallow="tram rail_urban rail rail_electric rail_fast ship" speed="22.22" length="5.04" shape="149.50,6898.18 146.53,6894.11"/>
    </edge>
    <edge id=":1553949800_1" function="internal">
        <lane id=":1553949800_1_0" index="0" allow="pedestrian bicycle" speed="6.96" length="2.02" width="2.00" shape="149.50,6898.18 149.73,6896.93 150.08,6896.27"/>
    </edge>
    <edge id=":1553949800_2" function="internal">
        <lane id=":1553949800_2_0" index="0" disallow="tram rail_urban rail rail_electric rail_fast ship" speed="3.65" length="2.23" shape="149.50,6898.18 149.52,6896.74 149.93,6896.06"/>
    </edge>
    <edge id=":1553949800_6" function="internal">
        <lane id=":1553949800_6_0" index="0" allow="pedestrian bicycle" speed="6.96" length="5.38" width="2.00" shape="150.08,6896.27 150.80,6894.94 152.08,6892.96 152.93,6891.72"/>
    </edge>
    <edge id=":1553949800_7" function="internal">
        <lane id=":1553949800_7_0" index="0" disallow="tram rail_urban rail rail_electric rail_fast ship" speed="3.65" length="2.44" shape="149.93,6896.06 149.98,6895.97 150.87,6895.87 152.19,6896.45"/>
    </edge>
    <edge id=":1553949800_3" function="internal">
        <lane id=":1553949800_3_0" index="0" allow="pedestrian bicycle" speed="4.57" length="4.82" width="2.00" shape="149.07,6892.16 150.01,6893.03 150.96,6893.25 151.94,6892.82 152.93,6891.72"/>
    </edge>
    <edge id=":1553949800_4" function="internal">
        <lane id=":1553949800_4_0" index="0" disallow="tram rail_urban rail rail_electric rail_fast ship" speed="22.22" length="5.31" shape="149.07,6892.16 152.19,6896.45"/>
    </edge>
    <edge id=":1553949800_5" function="internal">
        <lane id=":1553949800_5_0" index="0" disallow="tram rail_urban rail rail_electric rail_fast ship" speed="3.65" length="2.34" shape="149.07,6892.16 149.17,6893.59 148.78,6894.40"/>
    </edge>
    <edge id=":1553949800_8" function="internal">
        <lane id=":1553949800_8_0" index="0" disallow="tram rail_urban rail rail_electric rail_fast ship" speed="3.65" length="2.34" shape="148.78,6894.40 147.90,6894.57 146.53,6894.11"/>
    </edge>
    <edge id=":2460072369_0" function="internal">
        <lane id=":2460072369_0_0" index="0" disallow="tram rail_urban rail rail_electric rail_fast ship" speed="3.65" length="4.67" shape="6198.88,494.38 6200.04,495.24 6200.40,496.06 6199.96,496.84 6198.72,497.58"/>
    </edge>
    <edge id=":2460072772_0" function="internal">
        <lane id=":2460072772_0_0" index="0" disallow="tram rail_urban rail rail_electric rail_fast ship" speed="3.65" length="4.67" shape="4545.40,0.64 4545.64,-0.78 4546.22,-1.46 4547.11,-1.42 4548.32,-0.64"/>
    </edge>
    <edge id=":4486134247_0" function="internal">
        <lane id=":4486134247_0_0" index="0" disallow="tram rail_urban rail rail_electric rail_fast ship" speed="6.49" length="9.20" shape="618.09,6977.35 616.95,6975.14 615.34,6973.86 613.29,6973.51 610.77,6974.08"/>
    </edge>
    <edge id=":4486134247_1" function="internal">
        <lane id=":4486134247_1_0" index="0" disallow="tram rail_urban rail rail_electric rail_fast ship" speed="9.72" length="14.60" shape="618.09,6977.35 616.84,6973.88 615.50,6970.52 614.06,6967.21 612.48,6963.88"/>
    </edge>
    <edge id=":4486134247_2" function="internal">
        <lane id=":4486134247_2_0" index="0" disallow="tram rail_urban rail rail_electric rail_fast ship" speed="3.65" length="4.67" shape="618.09,6977.35 618.46,6975.95 619.09,6975.31 619.97,6975.43 621.12,6976.30"/>
    </edge>
    <edge id=":4486134247_3" function="internal">
        <lane id=":4486134247_3_0" index="0" disallow="tram rail_urban rail rail_electric rail_fast ship" speed="9.72" length="15.00" shape="615.35,6962.47 616.95,6965.86 618.45,6969.30 619.84,6972.78 621.12,6976.30"/>
    </edge>
    <edge id=":4486134247_4" function="internal">
        <lane id=":4486134247_4_0" index="0" disallow="tram rail_urban rail rail_electric rail_fast ship" speed="5.56" length="14.56" shape="615.35,6962.47 616.60,6966.32 616.25,6969.53 614.31,6972.12 610.77,6974.08"/>
    </edge>
    <edge id=":4486134247_5" function="internal">
        <lane id=":4486134247_5_0" index="0" disallow="tram rail_urban rail rail_electric rail_fast ship" speed="3.65" length="4.67" shape="615.35,6962.47 615.16,6963.90 614.62,6964.61 613.73,6964.61 612.48,6963.88"/>
    </edge>
    <edge id=":4486134247_6" function="internal">
        <lane id=":4486134247_6_0" index="0" disallow="tram rail_urban rail rail_electric rail_fast ship" speed="5.56" length="9.04" shape="609.64,6971.09 611.83,6969.88 613.04,6968.27 613.25,6966.27 612.48,6963.88"/>
    </edge>
    <edge id=":4486134247_7" function="internal">
        <lane id=":4486134247_7_0" index="0" disallow="tram rail_urban rail rail_electric rail_fast ship" speed="7.99" length="14.48" shape="609.64,6971.09 613.57,6970.20 616.79,6970.77 619.31,6972.80 621.12,6976.30"/>
    </edge>
    <edge id=":4486134247_8" function="internal">
        <lane id=":4486134247_8_0" index="0" disallow="tram rail_urban rail rail_electric rail_fast ship" speed="3.65" length="4.67" shape="609.64,6971.09 611.04,6971.41 611.70,6972.02 611.61,6972.91 610.77,6974.08"/>
    </edge>
    <edge id=":4486134260_0" function="internal">
        <lane id=":4486134260_0_0" index="0" disallow="tram rail_urban rail rail_electric rail_fast ship" speed="5.56" length="19.76" shape="538.84,6990.33 536.33,6986.80 532.20,6983.40 527.59,6980.41 523.64,6978.09"/>
    </edge>
    <edge id=":4486134260_1" function="internal">
        <lane id=":4486134260_1_0" index="0" disallow="tram rail_urban rail rail_electric rail_fast ship" speed="5.56" length="21.14" shape="538.84,6990.33 536.90,6986.05 534.15,6980.88 531.25,6975.78 528.87,6971.71"/>
    </edge>
    <edge id=":4486134260_2" function="internal">
        <lane id=":4486134260_2_0" index="0" disallow="tram rail_urban rail rail_electric rail_fast ship" speed="3.65" length="4.67" shape="538.84,6990.33 539.17,6988.93 539.78,6988.27 540.67,6988.37 541.84,6989.21"/>
    </edge>
    <edge id=":4486134260_3" function="internal">
        <lane id=":4486134260_3_0" index="0" disallow="tram rail_urban rail rail_electric rail_fast ship" speed="5.56" length="21.70" shape="531.63,6970.08 534.05,6974.23 537.03,6979.51 539.86,6984.85 541.84,6989.21"/>
    </edge>
    <edge id=":4486134260_4" function="internal">
        <lane id=":4486134260_4_0" index="0" disallow="tram rail_urban rail rail_electric rail_fast ship" speed="5.56" length="15.39" shape="531.63,6970.08 532.49,6974.06 530.86,6977.30 527.63,6978.94 523.64,6978.09"/>
    </edge>
    <edge id=":4486134260_5" function="internal">
        <lane id=":4486134260_5_0" index="0" disallow="tram rail_urban rail rail_electric rail_fast ship" speed="3.65" length="4.67" shape="531.63,6970.08 531.55,6971.52 531.06,6972.27 530.17,6972.34 528.87,6971.71"/>
    </edge>
    <edge id=":4486134260_6" function="internal">
        <lane id=":4486134260_6_0" index="0" disallow="tram rail_urban rail rail_electric rail_fast ship" speed="5.54" length="11.35" shape="525.26,6975.33 528.78,6977.03 530.55,6976.99 530.58,6975.22 528.87,6971.71"/>
    </edge>
    <edge id=":4486134260_7" function="internal">
        <lane id=":4486134260_7_0" index="0" disallow="tram rail_urban rail rail_electric rail_fast ship" speed="5.56" length="21.84" shape="525.26,6975.33 529.43,6977.90 534.51,6981.46 539.12,6985.42 541.84,6989.21"/>
    </edge>
    <edge id=":4486134260_8" function="internal">
        <lane id=":4486134260_8_0" index="0" disallow="tram rail_urban rail rail_electric rail_fast ship" speed="3.65" length="4.67" shape="525.26,6975.33 525.89,6976.62 525.83,6977.51 525.08,6978.00 523.64,6978.09"/>
    </edge>
    <edge id=":4486134513_0" function="internal">
        <lane id=":4486134513_0_0" index="0" disallow="tram rail_urban rail rail_electric rail_fast ship" speed="5.56" length="17.99" shape="399.30,6956.79 395.66,6958.85 391.20,6960.54 386.57,6961.81 382.41,6962.62"/>
    </edge>
    <edge id=":4486134513_1" function="internal">
        <lane id=":4486134513_1_0" index="0" disallow="tram rail_urban rail rail_electric rail_fast ship" speed="9.62" length="17.32" shape="399.30,6956.79 395.97,6958.33 392.25,6958.28 388.14,6956.66 383.65,6953.47"/>
    </edge>
    <edge id=":4486134513_2" function="internal">
        <lane id=":4486134513_2_0" index="0" disallow="tram rail_urban rail rail_electric rail_fast ship" speed="3.65" length="4.67" shape="399.30,6956.79 397.86,6956.86 397.06,6956.46 396.91,6955.58 397.39,6954.22"/>
    </edge>
    <edge id=":4486134513_3" function="internal">
        <lane id=":4486134513_3_0" index="0" disallow="tram rail_urban rail rail_electric rail_fast ship" speed="8.40" length="13.01" shape="385.72,6951.03 389.24,6953.60 392.36,6954.99 395.08,6955.20 397.39,6954.22"/>
    </edge>
    <edge id=":4486134513_4" function="internal">
        <lane id=":4486134513_4_0" index="0" disallow="tram rail_urban rail rail_electric rail_fast ship" speed="7.39" length="18.50" shape="385.72,6951.03 389.67,6955.29 390.44,6958.64 388.02,6961.08 382.41,6962.62"/>
    </edge>
    <edge id=":4486134513_5" function="internal">
        <lane id=":4486134513_5_0" index="0" disallow="tram rail_urban rail rail_electric rail_fast ship" speed="3.65" length="4.67" shape="385.72,6951.03 386.12,6952.42 385.90,6953.28 385.08,6953.63 383.65,6953.47"/>
    </edge>
    <edge id=":4486134513_6" function="internal">
        <lane id=":4486134513_6_0" index="0" disallow="tram rail_urban rail rail_electric rail_fast ship" speed="5.51" length="9.55" shape="381.94,6959.45 384.83,6958.66 386.08,6957.40 385.69,6955.67 383.65,6953.47"/>
    </edge>
    <edge id=":4486134513_7" function="internal">
        <lane id=":4486134513_7_0" index="0" disallow="tram rail_urban rail rail_electric rail_fast ship" speed="5.56" length="16.45" shape="381.94,6959.45 385.87,6958.74 390.01,6957.67 393.98,6956.19 397.39,6954.22"/>
    </edge>
    <edge id=":4486134513_8" function="internal">
        <lane id=":4486134513_8_0" index="0" disallow="tram rail_urban rail rail_electric rail_fast ship" speed="3.65" length="4.67" shape="381.94,6959.45 383.24,6960.06 383.76,6960.80 383.48,6961.65 382.41,6962.62"/>
    </edge>
    <edge id=":4486134522_0" function="internal">
        <lane id=":4486134522_0_0" index="0" allow="pedestrian bicycle" speed="4.17" length="5.65" width="2.00" shape="411.80,6609.86 410.55,6609.07 409.24,6608.66 407.89,6608.62 406.48,6608.94"/>
    </edge>
    <edge id=":4486134522_1" function="internal">
        <lane id=":4486134522_1_0" index="0" disallow="tram rail_urban rail rail_electric rail_fast ship" speed="5.56" length="5.80" shape="411.80,6609.86 410.49,6608.76 409.69,6607.89 409.05,6606.89 408.20,6605.40"/>
    </edge>
    <edge id=":4486134522_2" function="internal">
        <lane id=":4486134522_2_0" index="0" disallow="tram rail_urban rail rail_electric rail_fast ship" speed="3.65" length="4.67" shape="411.80,6609.86 411.35,6608.49 411.54,6607.61 412.35,6607.23 413.78,6607.35"/>
    </edge>
    <edge id=":4486134522_3" function="internal">
        <lane id=":4486134522_3_0" index="0" disallow="tram rail_urban rail rail_electric rail_fast ship" speed="5.56" length="4.57" shape="410.97,6603.80 411.64,6604.99 412.13,6605.78 412.75,6606.48 413.78,6607.35"/>
    </edge>
    <edge id=":4486134522_4" function="internal">
        <lane id=":4486134522_4_0" index="0" allow="pedestrian bicycle" speed="4.17" length="7.82" width="2.00" shape="410.97,6603.80 411.32,6605.23 410.69,6606.56 409.08,6607.80 406.48,6608.94"/>
    </edge>
    <edge id=":4486134522_5" function="internal">
        <lane id=":4486134522_5_0" index="0" disallow="tram rail_urban rail rail_electric rail_fast ship" speed="3.65" length="4.67" shape="410.97,6603.80 410.88,6605.24 410.38,6605.99 409.49,6606.04 408.20,6605.40"/>
    </edge>