<?xml version="1.0" encoding="UTF-8"?>
<!-- generated on 2020-04-29 16:10:07.585549 by generateContinuousRerouters.py UNKNOWN
  options: -n mau_sebudi.net.xml -o mau_sebudi_rerouter.add.xml
-->
<additional xmlns:xsi="http://www.w3.org/2001/XMLSchema-instance" xsi:noNamespaceSchemaLocation="http://sumo.dlr.de/xsd/additional_file.xsd">
    <route id="-210617558#2_-210617558#1" edges="-210617558#2 -210617558#1"/>
    <route id="-210617558#2_210617558#2" edges="-210617558#2 210617558#2"/>
    <route id="-210617558#2_451798708#0" edges="-210617558#2 451798708#0"/>
    <rerouter id="rr_-210617558#2" edges="-210617558#2">
        <interval begin="0" end="3600">
            <routeProbReroute id="-210617558#2_-210617558#1" probability="50.0"/>
            <routeProbReroute id="-210617558#2_210617558#2" probability="0"/>
            <routeProbReroute id="-210617558#2_451798708#0" probability="20.0"/>
        </interval>
    </rerouter>
    <route id="-451798708#0_-210617558#1" edges="-451798708#0 -210617558#1"/>
    <route id="-451798708#0_210617558#2" edges="-451798708#0 210617558#2"/>
    <route id="-451798708#0_451798708#0" edges="-451798708#0 451798708#0"/>
    <rerouter id="rr_-451798708#0" edges="-451798708#0">
        <interval begin="0" end="3600">
            <routeProbReroute id="-451798708#0_-210617558#1" probability="20.0"/>
            <routeProbReroute id="-451798708#0_210617558#2" probability="30.0"/>
            <routeProbReroute id="-451798708#0_451798708#0" probability="0"/>
        </interval>
    </rerouter>
    <route id="210617558#1_-210617558#1" edges="210617558#1 -210617558#1"/>
    <route id="210617558#1_210617558#2" edges="210617558#1 210617558#2"/>
    <route id="210617558#1_451798708#0" edges="210617558#1 451798708#0"/>
    <rerouter id="rr_210617558#1" edges="210617558#1">
        <interval begin="0" end="3600">
            <routeProbReroute id="210617558#1_-210617558#1" probability="0"/>
            <routeProbReroute id="210617558#1_210617558#2" probability="50.0"/>
            <routeProbReroute id="210617558#1_451798708#0" probability="30.0"/>
        </interval>
    </rerouter>
    <route id="-210617558#1_210617558#1" edges="-210617558#1 210617558#1"/>
    <route id="-210617558#1_527775826#0" edges="-210617558#1 527775826#0"/>
    <route id="-210617558#1_gneE1" edges="-210617558#1 gneE1 gneE2 gneE3 -701166835"/>
    <rerouter id="rr_-210617558#1" edges="-210617558#1">
        <interval begin="0" end="3600">
            <routeProbReroute id="-210617558#1_210617558#1" probability="0"/>
            <routeProbReroute id="-210617558#1_527775826#0" probability="20.0"/>
            <routeProbReroute id="-210617558#1_gneE1" probability="50.0"/>
        </interval>
    </rerouter>
    <route id="-527775826#0_210617558#1" edges="-527775826#0 210617558#1"/>
    <route id="-527775826#0_527775826#0" edges="-527775826#0 527775826#0"/>
    <route id="-527775826#0_gneE1" edges="-527775826#0 gneE1 gneE2 gneE3 -701166835"/>
    <rerouter id="rr_-527775826#0" edges="-527775826#0">
        <interval begin="0" end="3600">
            <routeProbReroute id="-527775826#0_210617558#1" probability="30.0"/>
            <routeProbReroute id="-527775826#0_527775826#0" probability="0"/>
            <routeProbReroute id="-527775826#0_gneE1" probability="20.0"/>
        </interval>
    </rerouter>
    <route id="-gneE1_210617558#1" edges="-gneE1 210617558#1"/>
    <route id="-gneE1_527775826#0" edges="-gneE1 527775826#0"/>
    <rerouter id="rr_-gneE1" edges="-gneE1">
        <interval begin="0" end="3600">
            <routeProbReroute id="-gneE1_210617558#1" probability="50.0"/>
            <routeProbReroute id="-gneE1_527775826#0" probability="30.0"/>
        </interval>
    </rerouter>
    <route id="-210617558#3_-210617558#2" edges="-210617558#3 -210617558#2"/>
    <route id="-210617558#3_210617558#3" edges="-210617558#3 210617558#3"/>
    <route id="-210617558#3_gneE24" edges="-210617558#3 gneE24 gneE25"/>
    <rerouter id="rr_-210617558#3" edges="-210617558#3">
        <interval begin="0" end="3600">
            <routeProbReroute id="-210617558#3_-210617558#2" probability="50.0"/>
            <routeProbReroute id="-210617558#3_210617558#3" probability="0"/>
            <routeProbReroute id="-210617558#3_gneE24" probability="20.0"/>
        </interval>
    </rerouter>
    <route id="-gneE24_-210617558#2" edges="-gneE24 -210617558#2"/>
    <route id="-gneE24_210617558#3" edges="-gneE24 210617558#3"/>
    <rerouter id="rr_-gneE24" edges="-gneE24">
        <interval begin="0" end="3600">
            <routeProbReroute id="-gneE24_-210617558#2" probability="20.0"/>
            <routeProbReroute id="-gneE24_210617558#3" probability="30.0"/>
        </interval>
    </rerouter>
    <route id="210617558#2_-210617558#2" edges="210617558#2 -210617558#2"/>
    <route id="210617558#2_210617558#3" edges="210617558#2 210617558#3"/>
    <route id="210617558#2_gneE24" edges="210617558#2 gneE24 gneE25"/>
    <rerouter id="rr_210617558#2" edges="210617558#2">
        <interval begin="0" end="3600">
            <routeProbReroute id="210617558#2_-210617558#2" probability="0"/>
            <routeProbReroute id="210617558#2_210617558#3" probability="50.0"/>
            <routeProbReroute id="210617558#2_gneE24" probability="30.0"/>
        </interval>
    </rerouter>
    <route id="-210617558#4_-210617558#3" edges="-210617558#4 -210617558#3"/>
    <route id="-210617558#4_210617558#4" edges="-210617558#4 210617558#4"/>
    <route id="-210617558#4_gneE21" edges="-210617558#4 gneE21"/>
    <rerouter id="rr_-210617558#4" edges="-210617558#4">
        <interval begin="0" end="3600">
            <routeProbReroute id="-210617558#4_-210617558#3" probability="50.0"/>
            <routeProbReroute id="-210617558#4_210617558#4" probability="0"/>
            <routeProbReroute id="-210617558#4_gneE21" probability="20.0"/>
        </interval>
    </rerouter>
    <route id="-gneE21_-210617558#3" edges="-gneE21 -210617558#3"/>
    <route id="-gneE21_210617558#4" edges="-gneE21 210617558#4"/>
    <rerouter id="rr_-gneE21" edges="-gneE21">
        <interval begin="0" end="3600">
            <routeProbReroute id="-gneE21_-210617558#3" probability="20.0"/>
            <routeProbReroute id="-gneE21_210617558#4" probability="30.0"/>
        </interval>
    </rerouter>
    <route id="210617558#3_-210617558#3" edges="210617558#3 -210617558#3"/>
    <route id="210617558#3_210617558#4" edges="210617558#3 210617558#4"/>
    <route id="210617558#3_gneE21" edges="210617558#3 gneE21"/>
    <rerouter id="rr_210617558#3" edges="210617558#3">
        <interval begin="0" end="3600">
            <routeProbReroute id="210617558#3_-210617558#3" probability="0"/>
            <routeProbReroute id="210617558#3_210617558#4" probability="50.0"/>
            <routeProbReroute id="210617558#3_gneE21" probability="30.0"/>
        </interval>
    </rerouter>
    <route id="-210617558#5_-210617558#4" edges="-210617558#5 -210617558#4"/>
    <route id="-210617558#5_210617558#5" edges="-210617558#5 210617558#5"/>
    <rerouter id="rr_-210617558#5" edges="-210617558#5">
        <interval begin="0" end="3600">
            <routeProbReroute id="-210617558#5_-210617558#4" probability="50.0"/>
            <routeProbReroute id="-210617558#5_210617558#5" probability="0"/>
        </interval>
    </rerouter>
    <route id="210617558#4_-210617558#4" edges="210617558#4 -210617558#4"/>
    <route id="210617558#4_210617558#5" edges="210617558#4 210617558#5"/>
    <rerouter id="rr_210617558#4" edges="210617558#4">
        <interval begin="0" end="3600">
            <routeProbReroute id="210617558#4_-210617558#4" probability="0"/>
            <routeProbReroute id="210617558#4_210617558#5" probability="50.0"/>
        </interval>
    </rerouter>
    <route id="-701166838_-210617558#5" edges="-701166838 -210617558#5"/>
    <route id="-701166838_-gneE35" edges="-701166838 -gneE35 -gneE34"/>
    <route id="-701166838_701166838" edges="-701166838 701166838"/>
    <route id="-701166838_gneE41" edges="-701166838 gneE41 gneE42"/>
    <rerouter id="rr_-701166838" edges="-701166838">
        <interval begin="0" end="3600">
            <routeProbReroute id="-701166838_-210617558#5" probability="20.0"/>
            <routeProbReroute id="-701166838_-gneE35" probability="20.0"/>
            <routeProbReroute id="-701166838_701166838" probability="0"/>
            <routeProbReroute id="-701166838_gneE41" probability="30.0"/>
        </interval>
    </rerouter>
    <route id="-gneE41_-210617558#5" edges="-gneE41 -210617558#5"/>
    <route id="-gneE41_-gneE35" edges="-gneE41 -gneE35 -gneE34"/>
    <route id="-gneE41_701166838" edges="-gneE41 701166838"/>
    <rerouter id="rr_-gneE41" edges="-gneE41">
        <interval begin="0" end="3600">
            <routeProbReroute id="-gneE41_-210617558#5" probability="50.0"/>
            <routeProbReroute id="-gneE41_-gneE35" probability="20.0"/>
            <routeProbReroute id="-gneE41_701166838" probability="20.0"/>
        </interval>
    </rerouter>
    <route id="210617558#5_-210617558#5" edges="210617558#5 -210617558#5"/>
    <route id="210617558#5_-gneE35" edges="210617558#5 -gneE35 -gneE34"/>
    <route id="210617558#5_701166838" edges="210617558#5 701166838"/>
    <route id="210617558#5_gneE41" edges="210617558#5 gneE41 gneE42"/>
    <rerouter id="rr_210617558#5" edges="210617558#5">
        <interval begin="0" end="3600">
            <routeProbReroute id="210617558#5_-210617558#5" probability="0"/>
            <routeProbReroute id="210617558#5_-gneE35" probability="30.0"/>
            <routeProbReroute id="210617558#5_701166838" probability="30.0"/>
            <routeProbReroute id="210617558#5_gneE41" probability="50.0"/>
        </interval>
    </rerouter>
    <route id="gneE35_-210617558#5" edges="gneE35 -210617558#5"/>
    <route id="gneE35_701166838" edges="gneE35 701166838"/>
    <route id="gneE35_gneE41" edges="gneE35 gneE41 gneE42"/>
    <rerouter id="rr_gneE35" edges="gneE35">
        <interval begin="0" end="3600">
            <routeProbReroute id="gneE35_-210617558#5" probability="20.0"/>
            <routeProbReroute id="gneE35_701166838" probability="30.0"/>
            <routeProbReroute id="gneE35_gneE41" probability="30.0"/>
        </interval>
    </rerouter>
    <route id="-451798708#1_-451798708#0" edges="-451798708#1 -451798708#0"/>
    <route id="-451798708#1_-gneE9" edges="-451798708#1 -gneE9 -gneE8 -gneE7 -gneE6 -gneE5 -gneE4 -701166830#1"/>
    <route id="-451798708#1_451798708#1" edges="-451798708#1 451798708#1"/>
    <route id="-451798708#1_527775828#0" edges="-451798708#1 527775828#0"/>
    <route id="-451798708#1_gneE19" edges="-451798708#1 gneE19 gneE20"/>
    <rerouter id="rr_-451798708#1" edges="-451798708#1">
        <interval begin="0" end="3600">
            <routeProbReroute id="-451798708#1_-451798708#0" probability="50.0"/>
            <routeProbReroute id="-451798708#1_-gneE9" probability="20.0"/>
            <routeProbReroute id="-451798708#1_451798708#1" probability="0"/>
            <routeProbReroute id="-451798708#1_527775828#0" probability="20.0"/>
            <routeProbReroute id="-451798708#1_gneE19" probability="20.0"/>
        </interval>
    </rerouter>
    <route id="-527775828#0_-451798708#0" edges="-527775828#0 -451798708#0"/>
    <route id="-527775828#0_-gneE9" edges="-527775828#0 -gneE9 -gneE8 -gneE7 -gneE6 -gneE5 -gneE4 -701166830#1"/>
    <route id="-527775828#0_451798708#1" edges="-527775828#0 451798708#1"/>
    <route id="-527775828#0_527775828#0" edges="-527775828#0 527775828#0"/>
    <route id="-527775828#0_gneE19" edges="-527775828#0 gneE19 gneE20"/>
    <rerouter id="rr_-527775828#0" edges="-527775828#0">
        <interval begin="0" end="3600">
            <routeProbReroute id="-527775828#0_-451798708#0" probability="20.0"/>
            <routeProbReroute id="-527775828#0_-gneE9" probability="20.0"/>
            <routeProbReroute id="-527775828#0_451798708#1" probability="30.0"/>
            <routeProbReroute id="-527775828#0_527775828#0" probability="0"/>
            <routeProbReroute id="-527775828#0_gneE19" probability="30.0"/>
        </interval>
    </rerouter>
    <route id="-gneE19_-451798708#0" edges="-gneE19 -451798708#0"/>
    <route id="-gneE19_-gneE9" edges="-gneE19 -gneE9 -gneE8 -gneE7 -gneE6 -gneE5 -gneE4 -701166830#1"/>
    <route id="-gneE19_451798708#1" edges="-gneE19 451798708#1"/>
    <route id="-gneE19_527775828#0" edges="-gneE19 527775828#0"/>
    <rerouter id="rr_-gneE19" edges="-gneE19">
        <interval begin="0" end="3600">
            <routeProbReroute id="-gneE19_-451798708#0" probability="20.0"/>
            <routeProbReroute id="-gneE19_-gneE9" probability="20.0"/>
            <routeProbReroute id="-gneE19_451798708#1" probability="30.0"/>
            <routeProbReroute id="-gneE19_527775828#0" probability="20.0"/>
        </interval>
    </rerouter>
    <route id="451798708#0_-451798708#0" edges="451798708#0 -451798708#0"/>
    <route id="451798708#0_-gneE9" edges="451798708#0 -gneE9 -gneE8 -gneE7 -gneE6 -gneE5 -gneE4 -701166830#1"/>
    <route id="451798708#0_451798708#1" edges="451798708#0 451798708#1"/>
    <route id="451798708#0_527775828#0" edges="451798708#0 527775828#0"/>
    <route id="451798708#0_gneE19" edges="451798708#0 gneE19 gneE20"/>
    <rerouter id="rr_451798708#0" edges="451798708#0">
        <interval begin="0" end="3600">
            <routeProbReroute id="451798708#0_-451798708#0" probability="0"/>
            <routeProbReroute id="451798708#0_-gneE9" probability="30.0"/>
            <routeProbReroute id="451798708#0_451798708#1" probability="50.0"/>
            <routeProbReroute id="451798708#0_527775828#0" probability="30.0"/>
            <routeProbReroute id="451798708#0_gneE19" probability="30.0"/>
        </interval>
    </rerouter>
    <route id="gneE9_-451798708#0" edges="gneE9 -451798708#0"/>
    <route id="gneE9_451798708#1" edges="gneE9 451798708#1"/>
    <route id="gneE9_527775828#0" edges="gneE9 527775828#0"/>
    <route id="gneE9_gneE19" edges="gneE9 gneE19 gneE20"/>
    <rerouter id="rr_gneE9" edges="gneE9">
        <interval begin="0" end="3600">
            <routeProbReroute id="gneE9_-451798708#0" probability="20.0"/>
            <routeProbReroute id="gneE9_451798708#1" probability="30.0"/>
            <routeProbReroute id="gneE9_527775828#0" probability="30.0"/>
            <routeProbReroute id="gneE9_gneE19" probability="30.0"/>
        </interval>
    </rerouter>
    <route id="-451798708#2_-451798708#1" edges="-451798708#2 -451798708#1"/>
    <route id="-451798708#2_-685526965" edges="-451798708#2 -685526965"/>
    <route id="-451798708#2_-gneE28" edges="-451798708#2 -gneE28 -gneE27 -gneE26"/>
    <route id="-451798708#2_451798708#2" edges="-451798708#2 451798708#2"/>
    <rerouter id="rr_-451798708#2" edges="-451798708#2">
        <interval begin="0" end="3600">
            <routeProbReroute id="-451798708#2_-451798708#1" probability="20.0"/>
            <routeProbReroute id="-451798708#2_-685526965" probability="50.0"/>
            <routeProbReroute id="-451798708#2_-gneE28" probability="20.0"/>
            <routeProbReroute id="-451798708#2_451798708#2" probability="0"/>
        </interval>
    </rerouter>
    <route id="451798708#1_-451798708#1" edges="451798708#1 -451798708#1"/>
    <route id="451798708#1_-685526965" edges="451798708#1 -685526965"/>
    <route id="451798708#1_-gneE28" edges="451798708#1 -gneE28 -gneE27 -gneE26"/>
    <route id="451798708#1_451798708#2" edges="451798708#1 451798708#2"/>
    <rerouter id="rr_451798708#1" edges="451798708#1">
        <interval begin="0" end="3600">
            <routeProbReroute id="451798708#1_-451798708#1" probability="0"/>
            <routeProbReroute id="451798708#1_-685526965" probability="50.0"/>
            <routeProbReroute id="451798708#1_-gneE28" probability="20.0"/>
            <routeProbReroute id="451798708#1_451798708#2" probability="30.0"/>
        </interval>
    </rerouter>
    <route id="685526965_-451798708#1" edges="685526965 -451798708#1"/>
    <route id="685526965_-685526965" edges="685526965 -685526965"/>
    <route id="685526965_-gneE28" edges="685526965 -gneE28 -gneE27 -gneE26"/>
    <route id="685526965_451798708#2" edges="685526965 451798708#2"/>
    <rerouter id="rr_685526965" edges="685526965">
        <interval begin="0" end="3600">
            <routeProbReroute id="685526965_-451798708#1" probability="30.0"/>
            <routeProbReroute id="685526965_-685526965" probability="0"/>
            <routeProbReroute id="685526965_-gneE28" probability="30.0"/>
            <routeProbReroute id="685526965_451798708#2" probability="50.0"/>
        </interval>
    </rerouter>
    <route id="gneE28_-451798708#1" edges="gneE28 -451798708#1"/>
    <route id="gneE28_-685526965" edges="gneE28 -685526965"/>
    <route id="gneE28_451798708#2" edges="gneE28 451798708#2"/>
    <rerouter id="rr_gneE28" edges="gneE28">
        <interval begin="0" end="3600">
            <routeProbReroute id="gneE28_-451798708#1" probability="30.0"/>
            <routeProbReroute id="gneE28_-685526965" probability="20.0"/>
            <routeProbReroute id="gneE28_451798708#2" probability="30.0"/>
        </interval>
    </rerouter>
    <route id="-451798708#3_-451798708#2" edges="-451798708#3 -451798708#2"/>
    <route id="-451798708#3_-gneE18" edges="-451798708#3 -gneE18 -gneE17 -gneE16 -gneE15"/>
    <route id="-451798708#3_451798708#3" edges="-451798708#3 451798708#3"/>
    <route id="-451798708#3_527775975#0" edges="-451798708#3 527775975#0"/>
    <rerouter id="rr_-451798708#3" edges="-451798708#3">
        <interval begin="0" end="3600">
            <routeProbReroute id="-451798708#3_-451798708#2" probability="20.0"/>
            <routeProbReroute id="-451798708#3_-gneE18" probability="20.0"/>
            <routeProbReroute id="-451798708#3_451798708#3" probability="0"/>
            <routeProbReroute id="-451798708#3_527775975#0" probability="50.0"/>
        </interval>
    </rerouter>
    <route id="-527775975#0_-451798708#2" edges="-527775975#0 -451798708#2"/>
    <route id="-527775975#0_-gneE18" edges="-527775975#0 -gneE18 -gneE17 -gneE16 -gneE15"/>
    <route id="-527775975#0_451798708#3" edges="-527775975#0 451798708#3"/>
    <route id="-527775975#0_527775975#0" edges="-527775975#0 527775975#0"/>
    <rerouter id="rr_-527775975#0" edges="-527775975#0">
        <interval begin="0" end="3600">
            <routeProbReroute id="-527775975#0_-451798708#2" probability="30.0"/>
            <routeProbReroute id="-527775975#0_-gneE18" probability="30.0"/>
            <routeProbReroute id="-527775975#0_451798708#3" probability="50.0"/>
            <routeProbReroute id="-527775975#0_527775975#0" probability="0"/>
        </interval>
    </rerouter>
    <route id="451798708#2_-451798708#2" edges="451798708#2 -451798708#2"/>
    <route id="451798708#2_-gneE18" edges="451798708#2 -gneE18 -gneE17 -gneE16 -gneE15"/>
    <route id="451798708#2_451798708#3" edges="451798708#2 451798708#3"/>
    <route id="451798708#2_527775975#0" edges="451798708#2 527775975#0"/>
    <rerouter id="rr_451798708#2" edges="451798708#2">
        <interval begin="0" end="3600">
            <routeProbReroute id="451798708#2_-451798708#2" probability="0"/>
            <routeProbReroute id="451798708#2_-gneE18" probability="30.0"/>
            <routeProbReroute id="451798708#2_451798708#3" probability="30.0"/>
            <routeProbReroute id="451798708#2_527775975#0" probability="20.0"/>
        </interval>
    </rerouter>
    <route id="gneE18_-451798708#2" edges="gneE18 -451798708#2"/>
    <route id="gneE18_451798708#3" edges="gneE18 451798708#3"/>
    <route id="gneE18_527775975#0" edges="gneE18 527775975#0"/>
    <rerouter id="rr_gneE18" edges="gneE18">
        <interval begin="0" end="3600">
            <routeProbReroute id="gneE18_-451798708#2" probability="20.0"/>
            <routeProbReroute id="gneE18_451798708#3" probability="30.0"/>
            <routeProbReroute id="gneE18_527775975#0" probability="20.0"/>
        </interval>
    </rerouter>
    <route id="-451798708#4_-451798708#3" edges="-451798708#4 -451798708#3"/>
    <route id="-451798708#4_-gneE61" edges="-451798708#4 -gneE61 -gneE60"/>
    <route id="-451798708#4_451798708#4" edges="-451798708#4 451798708#4"/>
    <rerouter id="rr_-451798708#4" edges="-451798708#4">
        <interval begin="0" end="3600">
            <routeProbReroute id="-451798708#4_-451798708#3" probability="20.0"/>
            <routeProbReroute id="-451798708#4_-gneE61" probability="20.0"/>
            <routeProbReroute id="-451798708#4_451798708#4" probability="0"/>
        </interval>
    </rerouter>
    <route id="451798708#3_-451798708#3" edges="451798708#3 -451798708#3"/>
    <route id="451798708#3_-gneE61" edges="451798708#3 -gneE61 -gneE60"/>
    <route id="451798708#3_451798708#4" edges="451798708#3 451798708#4"/>
    <rerouter id="rr_451798708#3" edges="451798708#3">
        <interval begin="0" end="3600">
            <routeProbReroute id="451798708#3_-451798708#3" probability="0"/>
            <routeProbReroute id="451798708#3_-gneE61" probability="30.0"/>
            <routeProbReroute id="451798708#3_451798708#4" probability="30.0"/>
        </interval>
    </rerouter>
    <route id="gneE61_-451798708#3" edges="gneE61 -451798708#3"/>
    <route id="gneE61_451798708#4" edges="gneE61 451798708#4"/>
    <rerouter id="rr_gneE61" edges="gneE61">
        <interval begin="0" end="3600">
            <routeProbReroute id="gneE61_-451798708#3" probability="20.0"/>
            <routeProbReroute id="gneE61_451798708#4" probability="30.0"/>
        </interval>
    </rerouter>
    <route id="451798708#4_-451798708#4" edges="451798708#4 -451798708#4"/>
    <route id="451798708#4_-701166839" edges="451798708#4 -701166839"/>
    <rerouter id="rr_451798708#4" edges="451798708#4">
        <interval begin="0" end="3600">
            <routeProbReroute id="451798708#4_-451798708#4" probability="0"/>
            <routeProbReroute id="451798708#4_-701166839" probability="30.0"/>
        </interval>
    </rerouter>
    <route id="701166839_-451798708#4" edges="701166839 -451798708#4"/>
    <route id="701166839_-701166839" edges="701166839 -701166839"/>
    <rerouter id="rr_701166839" edges="701166839">
        <interval begin="0" end="3600">
            <routeProbReroute id="701166839_-451798708#4" probability="20.0"/>
            <routeProbReroute id="701166839_-701166839" probability="0"/>
        </interval>
    </rerouter>
    <route id="-527775826#1_-527775826#0" edges="-527775826#1 -527775826#0"/>
    <route id="-527775826#1_527775826#1" edges="-527775826#1 527775826#1"/>
    <route id="-527775826#1_701166830#0" edges="-527775826#1 701166830#0"/>
    <rerouter id="rr_-527775826#1" edges="-527775826#1">
        <interval begin="0" end="3600">
            <routeProbReroute id="-527775826#1_-527775826#0" probability="50.0"/>
            <routeProbReroute id="-527775826#1_527775826#1" probability="0"/>
            <routeProbReroute id="-527775826#1_701166830#0" probability="30.0"/>
        </interval>
    </rerouter>
    <route id="-701166830#0_-527775826#0" edges="-701166830#0 -527775826#0"/>
    <route id="-701166830#0_527775826#1" edges="-701166830#0 527775826#1"/>
    <route id="-701166830#0_701166830#0" edges="-701166830#0 701166830#0"/>
    <rerouter id="rr_-701166830#0" edges="-701166830#0">
        <interval begin="0" end="3600">
            <routeProbReroute id="-701166830#0_-527775826#0" probability="30.0"/>
            <routeProbReroute id="-701166830#0_527775826#1" probability="20.0"/>
            <routeProbReroute id="-701166830#0_701166830#0" probability="0"/>
        </interval>
    </rerouter>
    <route id="527775826#0_-527775826#0" edges="527775826#0 -527775826#0"/>
    <route id="527775826#0_527775826#1" edges="527775826#0 527775826#1"/>
    <route id="527775826#0_701166830#0" edges="527775826#0 701166830#0"/>
    <rerouter id="rr_527775826#0" edges="527775826#0">
        <interval begin="0" end="3600">
            <routeProbReroute id="527775826#0_-527775826#0" probability="0"/>
            <routeProbReroute id="527775826#0_527775826#1" probability="50.0"/>
            <routeProbReroute id="527775826#0_701166830#0" probability="20.0"/>
        </interval>
    </rerouter>
    <route id="-527775828#2_-527775826#1" edges="-527775828#2 -527775826#1"/>
    <route id="-527775828#2_-527775828#1" edges="-527775828#2 -527775828#1"/>
    <route id="-527775828#2_527775828#2" edges="-527775828#2 527775828#2"/>
    <rerouter id="rr_-527775828#2" edges="-527775828#2">
        <interval begin="0" end="3600">
            <routeProbReroute id="-527775828#2_-527775826#1" probability="20.0"/>
            <routeProbReroute id="-527775828#2_-527775828#1" probability="50.0"/>
            <routeProbReroute id="-527775828#2_527775828#2" probability="0"/>
        </interval>
    </rerouter>
    <route id="527775826#1_-527775826#1" edges="527775826#1 -527775826#1"/>
    <route id="527775826#1_-527775828#1" edges="527775826#1 -527775828#1"/>
    <route id="527775826#1_527775828#2" edges="527775826#1 527775828#2"/>
    <rerouter id="rr_527775826#1" edges="527775826#1">
        <interval begin="0" end="3600">
            <routeProbReroute id="527775826#1_-527775826#1" probability="0"/>
            <routeProbReroute id="527775826#1_-527775828#1" probability="20.0"/>
            <routeProbReroute id="527775826#1_527775828#2" probability="30.0"/>
        </interval>
    </rerouter>
    <route id="527775828#1_-527775826#1" edges="527775828#1 -527775826#1"/>
    <route id="527775828#1_-527775828#1" edges="527775828#1 -527775828#1"/>
    <route id="527775828#1_527775828#2" edges="527775828#1 527775828#2"/>
    <rerouter id="rr_527775828#1" edges="527775828#1">
        <interval begin="0" end="3600">
            <routeProbReroute id="527775828#1_-527775826#1" probability="30.0"/>
            <routeProbReroute id="527775828#1_-527775828#1" probability="0"/>
            <routeProbReroute id="527775828#1_527775828#2" probability="50.0"/>
        </interval>
    </rerouter>
    <route id="-527775828#1_-527775828#0" edges="-527775828#1 -527775828#0"/>
    <route id="-527775828#1_-701166831" edges="-527775828#1 -701166831"/>
    <route id="-527775828#1_527775828#1" edges="-527775828#1 527775828#1"/>
    <route id="-527775828#1_gneE10" edges="-527775828#1 gneE10 gneE11"/>
    <rerouter id="rr_-527775828#1" edges="-527775828#1">
        <interval begin="0" end="3600">
            <routeProbReroute id="-527775828#1_-527775828#0" probability="50.0"/>
            <routeProbReroute id="-527775828#1_-701166831" probability="20.0"/>
            <routeProbReroute id="-527775828#1_527775828#1" probability="0"/>
            <routeProbReroute id="-527775828#1_gneE10" probability="30.0"/>
        </interval>
    </rerouter>
    <route id="-gneE10_-527775828#0" edges="-gneE10 -527775828#0"/>
    <route id="-gneE10_-701166831" edges="-gneE10 -701166831"/>
    <route id="-gneE10_527775828#1" edges="-gneE10 527775828#1"/>
    <rerouter id="rr_-gneE10" edges="-gneE10">
        <interval begin="0" end="3600">
            <routeProbReroute id="-gneE10_-527775828#0" probability="30.0"/>
            <routeProbReroute id="-gneE10_-701166831" probability="50.0"/>
            <routeProbReroute id="-gneE10_527775828#1" probability="20.0"/>
        </interval>
    </rerouter>
    <route id="527775828#0_-527775828#0" edges="527775828#0 -527775828#0"/>
    <route id="527775828#0_-701166831" edges="527775828#0 -701166831"/>
    <route id="527775828#0_527775828#1" edges="527775828#0 527775828#1"/>
    <route id="527775828#0_gneE10" edges="527775828#0 gneE10 gneE11"/>
    <rerouter id="rr_527775828#0" edges="527775828#0">
        <interval begin="0" end="3600">
            <routeProbReroute id="527775828#0_-527775828#0" probability="0"/>
            <routeProbReroute id="527775828#0_-701166831" probability="30.0"/>
            <routeProbReroute id="527775828#0_527775828#1" probability="50.0"/>
            <routeProbReroute id="527775828#0_gneE10" probability="20.0"/>
        </interval>
    </rerouter>
    <route id="701166831_-527775828#0" edges="701166831 -527775828#0"/>
    <route id="701166831_-701166831" edges="701166831 -701166831"/>
    <route id="701166831_527775828#1" edges="701166831 527775828#1"/>
    <route id="701166831_gneE10" edges="701166831 gneE10 gneE11"/>
    <rerouter id="rr_701166831" edges="701166831">
        <interval begin="0" end="3600">
            <routeProbReroute id="701166831_-527775828#0" probability="20.0"/>
            <routeProbReroute id="701166831_-701166831" probability="0"/>
            <routeProbReroute id="701166831_527775828#1" probability="30.0"/>
            <routeProbReroute id="701166831_gneE10" probability="50.0"/>
        </interval>
    </rerouter>
    <route id="-527775828#3_-527775828#2" edges="-527775828#3 -527775828#2"/>
    <route id="-527775828#3_527775828#3" edges="-527775828#3 527775828#3"/>
    <route id="-527775828#3_701166835" edges="-527775828#3 701166835"/>
    <rerouter id="rr_-527775828#3" edges="-527775828#3">
        <interval begin="0" end="3600">
            <routeProbReroute id="-527775828#3_-527775828#2" probability="50.0"/>
            <routeProbReroute id="-527775828#3_527775828#3" probability="0"/>
            <routeProbReroute id="-527775828#3_701166835" probability="20.0"/>
        </interval>
    </rerouter>
    <route id="-701166835_-527775828#2" edges="-701166835 -527775828#2"/>
    <route id="-701166835_527775828#3" edges="-701166835 527775828#3"/>
    <route id="-701166835_701166835" edges="-701166835 701166835"/>
    <rerouter id="rr_-701166835" edges="-701166835">
        <interval begin="0" end="3600">
            <routeProbReroute id="-701166835_-527775828#2" probability="20.0"/>
            <routeProbReroute id="-701166835_527775828#3" probability="30.0"/>