<?xml version="1.0" encoding="UTF-8"?>
<!-- generated on 2020-03-11 15:44:27.790050 by generateContinuousRerouters.py UNKNOWN
  options: -n sebudi_edit2.net.xml -o rerouter.add.xml
-->
<additional xmlns:xsi="http://www.w3.org/2001/XMLSchema-instance" xsi:noNamespaceSchemaLocation="http://sumo.dlr.de/xsd/additional_file.xsd">
    <route id="-527775826#0_-210617558#1" edges="-527775826#0 -210617558#1"/>
    <route id="-527775826#0_527775826#0" edges="-527775826#0 527775826#0"/>
    <rerouter id="rr_-527775826#0" edges="-527775826#0">
        <interval begin="0" end="3600">
            <routeProbReroute id="-527775826#0_-210617558#1" probability="20.0"/>
            <routeProbReroute id="-527775826#0_527775826#0" probability="0"/>
        </interval>
    </rerouter>
    <route id="210617558#1_-210617558#1" edges="210617558#1 -210617558#1"/>
    <route id="210617558#1_527775826#0" edges="210617558#1 527775826#0"/>
    <rerouter id="rr_210617558#1" edges="210617558#1">
        <interval begin="0" end="3600">
            <routeProbReroute id="210617558#1_-210617558#1" probability="0"/>
            <routeProbReroute id="210617558#1_527775826#0" probability="30.0"/>
        </interval>
    </rerouter>
    <route id="-210617558#1_-gneE22" edges="-210617558#1 -gneE22 -gneE21"/>
    <route id="-210617558#1_210617558#1" edges="-210617558#1 210617558#1"/>
    <route id="-210617558#1_527775824" edges="-210617558#1 527775824"/>
    <rerouter id="rr_-210617558#1" edges="-210617558#1">
        <interval begin="0" end="3600">
            <routeProbReroute id="-210617558#1_-gneE22" probability="20.0"/>
            <routeProbReroute id="-210617558#1_210617558#1" probability="0"/>
            <routeProbReroute id="-210617558#1_527775824" probability="20.0"/>
        </interval>
    </rerouter>
    <route id="-527775824_-gneE22" edges="-527775824 -gneE22 -gneE21"/>
    <route id="-527775824_210617558#1" edges="-527775824 210617558#1"/>
    <route id="-527775824_527775824" edges="-527775824 527775824"/>
    <rerouter id="rr_-527775824" edges="-527775824">
        <interval begin="0" end="3600">
            <routeProbReroute id="-527775824_-gneE22" probability="30.0"/>
            <routeProbReroute id="-527775824_210617558#1" probability="30.0"/>
            <routeProbReroute id="-527775824_527775824" probability="0"/>
        </interval>
    </rerouter>
    <route id="gneE22_210617558#1" edges="gneE22 210617558#1"/>
    <route id="gneE22_527775824" edges="gneE22 527775824"/>
    <rerouter id="rr_gneE22" edges="gneE22">
        <interval begin="0" end="3600">
            <routeProbReroute id="gneE22_210617558#1" probability="30.0"/>
            <routeProbReroute id="gneE22_527775824" probability="20.0"/>
        </interval>
    </rerouter>
    <route id="451798708#2_-451798708#2" edges="451798708#2 -451798708#2"/>
    <route id="451798708#2_-527775824" edges="451798708#2 -527775824"/>
    <route id="451798708#2_-527775828#4" edges="451798708#2 -527775828#4"/>
    <rerouter id="rr_451798708#2" edges="451798708#2">
        <interval begin="0" end="3600">
            <routeProbReroute id="451798708#2_-451798708#2" probability="0"/>
            <routeProbReroute id="451798708#2_-527775824" probability="50.0"/>
            <routeProbReroute id="451798708#2_-527775828#4" probability="30.0"/>
        </interval>
    </rerouter>
    <route id="527775824_-451798708#2" edges="527775824 -451798708#2"/>
    <route id="527775824_-527775824" edges="527775824 -527775824"/>
    <route id="527775824_-527775828#4" edges="527775824 -527775828#4"/>
    <rerouter id="rr_527775824" edges="527775824">
        <interval begin="0" end="3600">
            <routeProbReroute id="527775824_-451798708#2" probability="50.0"/>
            <routeProbReroute id="527775824_-527775824" probability="0"/>
            <routeProbReroute id="527775824_-527775828#4" probability="20.0"/>
        </interval>
    </rerouter>
    <route id="527775828#4_-451798708#2" edges="527775828#4 -451798708#2"/>
    <route id="527775828#4_-527775824" edges="527775828#4 -527775824"/>
    <route id="527775828#4_-527775828#4" edges="527775828#4 -527775828#4"/>
    <rerouter id="rr_527775828#4" edges="527775828#4">
        <interval begin="0" end="3600">
            <routeProbReroute id="527775828#4_-451798708#2" probability="20.0"/>
            <routeProbReroute id="527775828#4_-527775824" probability="30.0"/>
            <routeProbReroute id="527775828#4_-527775828#4" probability="0"/>
        </interval>
    </rerouter>
    <route id="-451798708#2_-701166839" edges="-451798708#2 -701166839"/>
    <route id="-451798708#2_-gneE26" edges="-451798708#2 -gneE26 -gneE25 -gneE24"/>
    <route id="-451798708#2_451798708#2" edges="-451798708#2 451798708#2"/>
    <rerouter id="rr_-451798708#2" edges="-451798708#2">
        <interval begin="0" end="3600">
            <routeProbReroute id="-451798708#2_-701166839" probability="20.0"/>
            <routeProbReroute id="-451798708#2_-gneE26" probability="50.0"/>
            <routeProbReroute id="-451798708#2_451798708#2" probability="0"/>
        </interval>
    </rerouter>
    <route id="701166839_-701166839" edges="701166839 -701166839"/>
    <route id="701166839_-gneE26" edges="701166839 -gneE26 -gneE25 -gneE24"/>
    <route id="701166839_451798708#2" edges="701166839 451798708#2"/>
    <rerouter id="rr_701166839" edges="701166839">
        <interval begin="0" end="3600">
            <routeProbReroute id="701166839_-701166839" probability="0"/>
            <routeProbReroute id="701166839_-gneE26" probability="20.0"/>
            <routeProbReroute id="701166839_451798708#2" probability="30.0"/>
        </interval>
    </rerouter>
    <route id="gneE26_-701166839" edges="gneE26 -701166839"/>
    <route id="gneE26_451798708#2" edges="gneE26 451798708#2"/>
    <rerouter id="rr_gneE26" edges="gneE26">
        <interval begin="0" end="3600">
            <routeProbReroute id="gneE26_-701166839" probability="30.0"/>
            <routeProbReroute id="gneE26_451798708#2" probability="50.0"/>
        </interval>
    </rerouter>
    <route id="-527775826#1_-527775826#0" edges="-527775826#1 -527775826#0"/>
    <route id="-527775826#1_-gneE18" edges="-527775826#1 -gneE18"/>
    <route id="-527775826#1_527775826#1" edges="-527775826#1 527775826#1"/>
    <route id="-527775826#1_701166830#0" edges="-527775826#1 701166830#0"/>
    <rerouter id="rr_-527775826#1" edges="-527775826#1">
        <interval begin="0" end="3600">
            <routeProbReroute id="-527775826#1_-527775826#0" probability="50.0"/>
            <routeProbReroute id="-527775826#1_-gneE18" probability="20.0"/>
            <routeProbReroute id="-527775826#1_527775826#1" probability="0"/>
            <routeProbReroute id="-527775826#1_701166830#0" probability="30.0"/>
        </interval>
    </rerouter>
    <route id="-701166830#0_-527775826#0" edges="-701166830#0 -527775826#0"/>
    <route id="-701166830#0_-gneE18" edges="-701166830#0 -gneE18"/>
    <route id="-701166830#0_527775826#1" edges="-701166830#0 527775826#1"/>
    <route id="-701166830#0_701166830#0" edges="-701166830#0 701166830#0"/>
    <rerouter id="rr_-701166830#0" edges="-701166830#0">
        <interval begin="0" end="3600">
            <routeProbReroute id="-701166830#0_-527775826#0" probability="30.0"/>
            <routeProbReroute id="-701166830#0_-gneE18" probability="30.0"/>
            <routeProbReroute id="-701166830#0_527775826#1" probability="20.0"/>
            <routeProbReroute id="-701166830#0_701166830#0" probability="0"/>
        </interval>
    </rerouter>
    <route id="527775826#0_-527775826#0" edges="527775826#0 -527775826#0"/>
    <route id="527775826#0_-gneE18" edges="527775826#0 -gneE18"/>
    <route id="527775826#0_527775826#1" edges="527775826#0 527775826#1"/>
    <route id="527775826#0_701166830#0" edges="527775826#0 701166830#0"/>
    <rerouter id="rr_527775826#0" edges="527775826#0">
        <interval begin="0" end="3600">
            <routeProbReroute id="527775826#0_-527775826#0" probability="0"/>
            <routeProbReroute id="527775826#0_-gneE18" probability="30.0"/>
            <routeProbReroute id="527775826#0_527775826#1" probability="50.0"/>
            <routeProbReroute id="527775826#0_701166830#0" probability="20.0"/>
        </interval>
    </rerouter>
    <route id="gneE18_-527775826#0" edges="gneE18 -527775826#0"/>
    <route id="gneE18_527775826#1" edges="gneE18 527775826#1"/>
    <route id="gneE18_701166830#0" edges="gneE18 701166830#0"/>
    <rerouter id="rr_gneE18" edges="gneE18">
        <interval begin="0" end="3600">
            <routeProbReroute id="gneE18_-527775826#0" probability="20.0"/>
            <routeProbReroute id="gneE18_527775826#1" probability="50.0"/>
            <routeProbReroute id="gneE18_701166830#0" probability="20.0"/>
        </interval>
    </rerouter>
    <route id="-527775828#2_-527775826#1" edges="-527775828#2 -527775826#1"/>
    <route id="-527775828#2_-527775828#1" edges="-527775828#2 -527775828#1"/>
    <route id="-527775828#2_527775828#2" edges="-527775828#2 527775828#2"/>
    <route id="-527775828#2_gneE24" edges="-527775828#2 gneE24 gneE25 gneE26"/>
    <rerouter id="rr_-527775828#2" edges="-527775828#2">
        <interval begin="0" end="3600">
            <routeProbReroute id="-527775828#2_-527775826#1" probability="20.0"/>
            <routeProbReroute id="-527775828#2_-527775828#1" probability="50.0"/>
            <routeProbReroute id="-527775828#2_527775828#2" probability="0"/>
            <routeProbReroute id="-527775828#2_gneE24" probability="30.0"/>
        </interval>
    </rerouter>
    <route id="-gneE24_-527775826#1" edges="-gneE24 -527775826#1"/>
    <route id="-gneE24_-527775828#1" edges="-gneE24 -527775828#1"/>
    <route id="-gneE24_527775828#2" edges="-gneE24 527775828#2"/>
    <rerouter id="rr_-gneE24" edges="-gneE24">
        <interval begin="0" end="3600">
            <routeProbReroute id="-gneE24_-527775826#1" probability="50.0"/>
            <routeProbReroute id="-gneE24_-527775828#1" probability="30.0"/>
            <routeProbReroute id="-gneE24_527775828#2" probability="20.0"/>
        </interval>
    </rerouter>
    <route id="527775826#1_-527775826#1" edges="527775826#1 -527775826#1"/>
    <route id="527775826#1_-527775828#1" edges="527775826#1 -527775828#1"/>
    <route id="527775826#1_527775828#2" edges="527775826#1 527775828#2"/>
    <route id="527775826#1_gneE24" edges="527775826#1 gneE24 gneE25 gneE26"/>
    <rerouter id="rr_527775826#1" edges="527775826#1">
        <interval begin="0" end="3600">
            <routeProbReroute id="527775826#1_-527775826#1" probability="0"/>
            <routeProbReroute id="527775826#1_-527775828#1" probability="20.0"/>
            <routeProbReroute id="527775826#1_527775828#2" probability="30.0"/>
            <routeProbReroute id="527775826#1_gneE24" probability="50.0"/>
        </interval>
    </rerouter>
    <route id="527775828#1_-527775826#1" edges="527775828#1 -527775826#1"/>
    <route id="527775828#1_-527775828#1" edges="527775828#1 -527775828#1"/>
    <route id="527775828#1_527775828#2" edges="527775828#1 527775828#2"/>
    <route id="527775828#1_gneE24" edges="527775828#1 gneE24 gneE25 gneE26"/>
    <rerouter id="rr_527775828#1" edges="527775828#1">
        <interval begin="0" end="3600">
            <routeProbReroute id="527775828#1_-527775826#1" probability="30.0"/>
            <routeProbReroute id="527775828#1_-527775828#1" probability="0"/>
            <routeProbReroute id="527775828#1_527775828#2" probability="50.0"/>
            <routeProbReroute id="527775828#1_gneE24" probability="20.0"/>
        </interval>
    </rerouter>
    <route id="-527775828#1_-701166831" edges="-527775828#1 -701166831"/>
    <route id="-527775828#1_527775828#1" edges="-527775828#1 527775828#1"/>
    <rerouter id="rr_-527775828#1" edges="-527775828#1">
        <interval begin="0" end="3600">
            <routeProbReroute id="-527775828#1_-701166831" probability="20.0"/>
            <routeProbReroute id="-527775828#1_527775828#1" probability="0"/>
        </interval>
    </rerouter>
    <route id="701166831_-701166831" edges="701166831 -701166831"/>
    <route id="701166831_527775828#1" edges="701166831 527775828#1"/>
    <rerouter id="rr_701166831" edges="701166831">
        <interval begin="0" end="3600">
            <routeProbReroute id="701166831_-701166831" probability="0"/>
            <routeProbReroute id="701166831_527775828#1" probability="30.0"/>
        </interval>
    </rerouter>
    <route id="-527775828#3_-527775828#2" edges="-527775828#3 -527775828#2"/>
    <route id="-527775828#3_527775828#3" edges="-527775828#3 527775828#3"/>
    <route id="-527775828#3_gneE19" edges="-527775828#3 gneE19 gneE20"/>
    <rerouter id="rr_-527775828#3" edges="-527775828#3">
        <interval begin="0" end="3600">
            <routeProbReroute id="-527775828#3_-527775828#2" probability="50.0"/>
            <routeProbReroute id="-527775828#3_527775828#3" probability="0"/>
            <routeProbReroute id="-527775828#3_gneE19" probability="20.0"/>
        </interval>
    </rerouter>
    <route id="-gneE19_-527775828#2" edges="-gneE19 -527775828#2"/>
    <route id="-gneE19_527775828#3" edges="-gneE19 527775828#3"/>
    <rerouter id="rr_-gneE19" edges="-gneE19">
        <interval begin="0" end="3600">
            <routeProbReroute id="-gneE19_-527775828#2" probability="20.0"/>
            <routeProbReroute id="-gneE19_527775828#3" probability="30.0"/>
        </interval>
    </rerouter>
    <route id="527775828#2_-527775828#2" edges="527775828#2 -527775828#2"/>
    <route id="527775828#2_527775828#3" edges="527775828#2 527775828#3"/>
    <route id="527775828#2_gneE19" edges="527775828#2 gneE19 gneE20"/>
    <rerouter id="rr_527775828#2" edges="527775828#2">
        <interval begin="0" end="3600">
            <routeProbReroute id="527775828#2_-527775828#2" probability="0"/>
            <routeProbReroute id="527775828#2_527775828#3" probability="50.0"/>
            <routeProbReroute id="527775828#2_gneE19" probability="30.0"/>
        </interval>
    </rerouter>
    <route id="-527775828#4_-527775828#3" edges="-527775828#4 -527775828#3"/>
    <route id="-527775828#4_527775828#4" edges="-527775828#4 527775828#4"/>
    <route id="-527775828#4_701166839" edges="-527775828#4 701166839"/>
    <route id="-527775828#4_gneE23" edges="-527775828#4 gneE23"/>
    <rerouter id="rr_-527775828#4" edges="-527775828#4">
        <interval begin="0" end="3600">
            <routeProbReroute id="-527775828#4_-527775828#3" probability="50.0"/>
            <routeProbReroute id="-527775828#4_527775828#4" probability="0"/>
            <routeProbReroute id="-527775828#4_701166839" probability="30.0"/>
            <routeProbReroute id="-527775828#4_gneE23" probability="20.0"/>
        </interval>
    </rerouter>
    <route id="-701166839_-527775828#3" edges="-701166839 -527775828#3"/>
    <route id="-701166839_527775828#4" edges="-701166839 527775828#4"/>
    <route id="-701166839_701166839" edges="-701166839 701166839"/>
    <route id="-701166839_gneE23" edges="-701166839 gneE23"/>
    <rerouter id="rr_-701166839" edges="-701166839">
        <interval begin="0" end="3600">
            <routeProbReroute id="-701166839_-527775828#3" probability="30.0"/>
            <routeProbReroute id="-701166839_527775828#4" probability="20.0"/>
            <routeProbReroute id="-701166839_701166839" probability="0"/>
            <routeProbReroute id="-701166839_gneE23" probability="50.0"/>
        </interval>
    </rerouter>
    <route id="-gneE23_-527775828#3" edges="-gneE23 -527775828#3"/>
    <route id="-gneE23_527775828#4" edges="-gneE23 527775828#4"/>
    <route id="-gneE23_701166839" edges="-gneE23 701166839"/>
    <rerouter id="rr_-gneE23" edges="-gneE23">
        <interval begin="0" end="3600">
            <routeProbReroute id="-gneE23_-527775828#3" probability="20.0"/>
            <routeProbReroute id="-gneE23_527775828#4" probability="30.0"/>
            <routeProbReroute id="-gneE23_701166839" probability="50.0"/>
        </interval>
    </rerouter>
    <route id="527775828#3_-527775828#3" edges="527775828#3 -527775828#3"/>
    <route id="527775828#3_527775828#4" edges="527775828#3 527775828#4"/>
    <route id="527775828#3_701166839" edges="527775828#3 701166839"/>
    <route id="527775828#3_gneE23" edges="527775828#3 gneE23"/>
    <rerouter id="rr_527775828#3" edges="527775828#3">
        <interval begin="0" end="3600">
            <routeProbReroute id="527775828#3_-527775828#3" probability="0"/>
            <routeProbReroute id="527775828#3_527775828#4" probability="50.0"/>
            <routeProbReroute id="527775828#3_701166839" probability="20.0"/>
            <routeProbReroute id="527775828#3_gneE23" probability="30.0"/>
        </interval>
    </rerouter>
    <route id="-701166831_-701166830#0" edges="-701166831 -701166830#0"/>
    <route id="-701166831_701166831" edges="-701166831 701166831"/>
    <rerouter id="rr_-701166831" edges="-701166831">
        <interval begin="0" end="3600">
            <routeProbReroute id="-701166831_-701166830#0" probability="20.0"/>
            <routeProbReroute id="-701166831_701166831" probability="0"/>
        </interval>
    </rerouter>
    <route id="701166830#0_-701166830#0" edges="701166830#0 -701166830#0"/>
    <route id="701166830#0_701166831" edges="701166830#0 701166831"/>
    <rerouter id="rr_701166830#0" edges="701166830#0">
        <interval begin="0" end="3600">
            <routeProbReroute id="701166830#0_-701166830#0" probability="0"/>
            <routeProbReroute id="701166830#0_701166831" probability="30.0"/>
        </interval>
    </rerouter>
    <route id="-gneE20_-gneE19" edges="-gneE20 -gneE19"/>
    <route id="gneE19_gneE20" edges="gneE19 gneE20"/>
    <route id="-gneE21_-gneE20" edges="-gneE21 -gneE20 -gneE19"/>
    <route id="-gneE21_-gneE23" edges="-gneE21 -gneE23"/>
    <rerouter id="rr_-gneE21" edges="-gneE21">
        <interval begin="0" end="3600">
            <routeProbReroute id="-gneE21_-gneE20" probability="50.0"/>
            <routeProbReroute id="-gneE21_-gneE23" probability="30.0"/>
        </interval>
    </rerouter>
    <route id="gneE20_-gneE23" edges="gneE20 -gneE23"/>
    <route id="gneE20_gneE21" edges="gneE20 gneE21 gneE22"/>
    <rerouter id="rr_gneE20" edges="gneE20">
        <interval begin="0" end="3600">
            <routeProbReroute id="gneE20_-gneE23" probability="20.0"/>
            <routeProbReroute id="gneE20_gneE21" probability="50.0"/>
        </interval>
    </rerouter>
    <route id="gneE23_-gneE20" edges="gneE23 -gneE20 -gneE19"/>
    <route id="gneE23_gneE21" edges="gneE23 gneE21 gneE22"/>
    <rerouter id="rr_gneE23" edges="gneE23">
        <interval begin="0" end="3600">
            <routeProbReroute id="gneE23_-gneE20" probability="30.0"/>
            <routeProbReroute id="gneE23_gneE21" probability="50.0"/>
        </interval>
    </rerouter>
    <route id="-gneE22_-gneE21" edges="-gneE22 -gneE21"/>
    <route id="gneE21_gneE22" edges="gneE21 gneE22"/>
    <route id="-gneE25_-gneE24" edges="-gneE25 -gneE24"/>
    <route id="gneE24_gneE25" edges="gneE24 gneE25 gneE26"/>
    <route id="-gneE26_-gneE25" edges="-gneE26 -gneE25 -gneE24"/>
    <route id="gneE25_gneE26" edges="gneE25 gneE26"/>
</additional>
