<?xml version="1.0" encoding="UTF-8"?>

<!-- generated on Fri 13 Mar 2020 06:53:15 AM WITA by Eclipse SUMO netedit Version 1.4.0
<configuration xmlns:xsi="http://www.w3.org/2001/XMLSchema-instance" xsi:noNamespaceSchemaLocation="http://sumo.dlr.de/xsd/netconvertConfiguration.xsd">

    <input>
        <sumo-net-file value="sebudi_track.net.xml"/>
    </input>

    <output>
        <output-file value="/home/adisaputra/NS/voip/Project-Jitter-Buffer-master/osmfiles/netfiles/sebudi_track1.net.xml"/>
    </output>

    <processing>
        <geometry.min-radius.fix.railways value="false"/>
        <geometry.max-grade.fix value="false"/>
        <offset.disable-normalization value="true"/>
        <lefthand value="false"/>
    </processing>

    <junctions>
        <no-turnarounds value="true"/>
        <junctions.corner-detail value="5"/>
        <junctions.limit-turn-speed value="5.5"/>
        <rectangular-lane-cut value="false"/>
    </junctions>

    <pedestrian>
        <walkingareas value="false"/>
    </pedestrian>

    <report>
        <aggregate-warnings value="5"/>
    </report>

</configuration>
-->

<net version="1.3" junctionCornerDetail="5" limitTurnSpeed="5.50" xmlns:xsi="http://www.w3.org/2001/XMLSchema-instance" xsi:noNamespaceSchemaLocation="http://sumo.dlr.de/xsd/net_file.xsd">

    <location netOffset="-329165.89,930795.17" convBoundary="18.57,0.00,3234.80,4455.53" origBoundary="115.448347,-8.417527,115.477864,-8.377353" projParameter="+proj=utm +zone=50 +ellps=WGS84 +datum=WGS84 +units=m +no_defs"/>

    <type id="highway.bridleway" priority="1" numLanes="1" speed="2.78" allow="pedestrian" oneway="1" width="2.00"/>
    <type id="highway.bus_guideway" priority="1" numLanes="1" speed="27.78" allow="bus" oneway="1"/>
    <type id="highway.cycleway" priority="1" numLanes="1" speed="8.33" allow="bicycle" oneway="0" width="1.00"/>
    <type id="highway.footway" priority="1" numLanes="1" speed="2.78" allow="pedestrian" oneway="1" width="2.00"/>
    <type id="highway.ford" priority="1" numLanes="1" speed="2.78" allow="army" oneway="0"/>
    <type id="highway.living_street" priority="2" numLanes="1" speed="2.78" disallow="tram rail_urban rail rail_electric rail_fast ship" oneway="0"/>
    <type id="highway.motorway" priority="14" numLanes="2" speed="39.44" allow="private emergency authority army vip passenger hov taxi bus coach delivery truck trailer motorcycle evehicle custom1 custom2" oneway="1"/>
    <type id="highway.motorway_link" priority="9" numLanes="1" speed="22.22" allow="private emergency authority army vip passenger hov taxi bus coach delivery truck trailer motorcycle evehicle custom1 custom2" oneway="1"/>
    <type id="highway.path" priority="1" numLanes="1" speed="2.78" allow="pedestrian bicycle" oneway="1" width="2.00"/>
    <type id="highway.pedestrian" priority="1" numLanes="1" speed="2.78" allow="pedestrian" oneway="1" width="2.00"/>
    <type id="highway.primary" priority="12" numLanes="2" speed="27.78" disallow="tram rail_urban rail rail_electric rail_fast ship" oneway="0"/>
    <type id="highway.primary_link" priority="7" numLanes="1" speed="22.22" disallow="tram rail_urban rail rail_electric rail_fast ship" oneway="0"/>
    <type id="highway.raceway" priority="15" numLanes="2" speed="83.33" allow="vip" oneway="0"/>
    <type id="highway.residential" priority="3" numLanes="1" speed="13.89" disallow="tram rail_urban rail rail_electric rail_fast ship" oneway="0"/>
    <type id="highway.secondary" priority="11" numLanes="1" speed="27.78" disallow="tram rail_urban rail rail_electric rail_fast ship" oneway="0"/>
    <type id="highway.secondary_link" priority="6" numLanes="1" speed="22.22" disallow="tram rail_urban rail rail_electric rail_fast ship" oneway="0"/>
    <type id="highway.service" priority="1" numLanes="1" speed="5.56" allow="pedestrian delivery bicycle" oneway="0"/>
    <type id="highway.stairs" priority="1" numLanes="1" speed="1.39" allow="pedestrian" oneway="1" width="2.00"/>
    <type id="highway.step" priority="1" numLanes="1" speed="1.39" allow="pedestrian" oneway="1" width="2.00"/>
    <type id="highway.steps" priority="1" numLanes="1" speed="1.39" allow="pedestrian" oneway="1" width="2.00"/>
    <type id="highway.tertiary" priority="10" numLanes="1" speed="22.22" disallow="tram rail_urban rail rail_electric rail_fast ship" oneway="0"/>
    <type id="highway.tertiary_link" priority="5" numLanes="1" speed="22.22" disallow="tram rail_urban rail rail_electric rail_fast ship" oneway="0"/>
    <type id="highway.track" priority="1" numLanes="1" speed="5.56" disallow="tram rail_urban rail rail_electric rail_fast ship" oneway="0"/>
    <type id="highway.trunk" priority="13" numLanes="2" speed="27.78" disallow="pedestrian bicycle tram rail_urban rail rail_electric rail_fast ship" oneway="0"/>
    <type id="highway.trunk_link" priority="8" numLanes="1" speed="22.22" disallow="pedestrian bicycle tram rail_urban rail rail_electric rail_fast ship" oneway="0"/>
    <type id="highway.unclassified" priority="4" numLanes="1" speed="13.89" disallow="tram rail_urban rail rail_electric rail_fast ship" oneway="0"/>
    <type id="highway.unsurfaced" priority="1" numLanes="1" speed="8.33" disallow="tram rail_urban rail rail_electric rail_fast ship" oneway="0"/>
    <type id="railway.highspeed" priority="21" numLanes="1" speed="69.44" allow="rail_fast" oneway="1"/>
    <type id="railway.light_rail" priority="19" numLanes="1" speed="27.78" allow="rail_urban" oneway="1"/>
    <type id="railway.preserved" priority="16" numLanes="1" speed="27.78" allow="rail" oneway="1"/>
    <type id="railway.rail" priority="20" numLanes="1" speed="44.44" allow="rail" oneway="1"/>
    <type id="railway.subway" priority="18" numLanes="1" speed="27.78" allow="rail_urban" oneway="1"/>
    <type id="railway.tram" priority="17" numLanes="1" speed="13.89" allow="tram" oneway="1"/>

    <edge id=":1553949743_0" function="internal">
        <lane id=":1553949743_0_0" index="0" disallow="tram rail_urban rail rail_electric rail_fast ship" speed="6.08" length="7.50" shape="2046.61,2712.58 2046.15,2710.59 2046.41,2708.90 2047.41,2707.52 2049.15,2706.44"/>
    </edge>
    <edge id=":1553949743_1" function="internal">
        <lane id=":1553949743_1_0" index="0" disallow="tram rail_urban rail rail_electric rail_fast ship" speed="3.65" length="4.67" shape="2046.61,2712.58 2046.92,2711.17 2047.52,2710.51 2048.41,2710.59 2049.60,2711.41"/>
    </edge>
    <edge id=":1553949743_2" function="internal">
        <lane id=":1553949743_2_0" index="0" disallow="tram rail_urban rail rail_electric rail_fast ship" speed="3.91" length="2.50" shape="2050.44,2709.37 2049.86,2709.73 2049.53,2710.19 2049.44,2710.75 2049.60,2711.41"/>
    </edge>
    <edge id=":1553949743_3" function="internal">
        <lane id=":1553949743_3_0" index="0" disallow="tram rail_urban rail rail_electric rail_fast ship" speed="3.65" length="4.67" shape="2050.44,2709.37 2049.02,2709.12 2048.33,2708.55 2048.38,2707.66 2049.15,2706.44"/>
    </edge>
    <edge id=":4486134396_0" function="internal">
        <lane id=":4486134396_0_0" index="0" disallow="tram rail_urban rail rail_electric rail_fast ship" speed="5.56" length="5.86" shape="2472.92,2789.28 2472.79,2790.82 2472.26,2792.10 2471.34,2793.13 2470.00,2793.91"/>
    </edge>
    <edge id=":4486134396_1" function="internal">
        <lane id=":4486134396_1_0" index="0" disallow="tram rail_urban rail rail_electric rail_fast ship" speed="3.65" length="4.67" shape="2472.92,2789.28 2472.17,2790.51 2471.39,2790.95 2470.57,2790.59 2469.72,2789.42"/>
    </edge>
    <edge id=":4486134396_2" function="internal">
        <lane id=":4486134396_2_0" index="0" disallow="tram rail_urban rail rail_electric rail_fast ship" speed="3.96" length="1.95" shape="2468.75,2790.97 2469.19,2790.71 2469.50,2790.37 2469.68,2789.94 2469.72,2789.42"/>
    </edge>
    <edge id=":4486134396_3" function="internal">
        <lane id=":4486134396_3_0" index="0" disallow="tram rail_urban rail rail_electric rail_fast ship" speed="3.65" length="4.67" shape="2468.75,2790.97 2470.17,2791.23 2470.85,2791.81 2470.79,2792.71 2470.00,2793.91"/>
    </edge>
    <edge id=":4486134440_0" function="internal">
        <lane id=":4486134440_0_0" index="0" disallow="tram rail_urban rail rail_electric rail_fast ship" speed="9.72" length="0.61" shape="2300.53,2579.94 2300.36,2579.97 2300.23,2579.99 2300.12,2580.04 2299.96,2580.12"/>
    </edge>
    <edge id=":4486134440_1" function="internal">
        <lane id=":4486134440_1_0" index="0" speed="9.48" length="1.83" shape="2298.46,2577.30 2298.94,2577.05 2299.28,2576.91 2299.65,2576.83 2300.19,2576.76"/>
    </edge>
    <edge id=":4486134440_2" function="internal">
        <lane id=":4486134440_2_0" index="0" disallow="tram rail_urban rail rail_electric rail_fast ship" speed="3.65" length="4.67" shape="2298.46,2577.30 2299.89,2577.44 2300.62,2577.96 2300.64,2578.85 2299.96,2580.12"/>
    </edge>
    <edge id=":4486134560_0" function="internal">
        <lane id=":4486134560_0_0" index="0" disallow="tram rail_urban rail rail_electric rail_fast ship" speed="9.75" length="11.12" shape="2210.03,2695.55 2208.80,2692.66 2207.21,2690.36 2205.25,2688.65 2202.93,2687.53"/>
    </edge>
    <edge id=":4486134560_1" function="internal">
        <lane id=":4486134560_1_0" index="0" disallow="tram rail_urban rail rail_electric rail_fast ship" speed="9.72" length="15.96" shape="2210.03,2695.55 2209.35,2691.77 2209.44,2687.72 2210.00,2683.63 2210.75,2679.77"/>
    </edge>
    <edge id=":4486134560_2" function="internal">
        <lane id=":4486134560_2_0" index="0" disallow="tram rail_urban rail rail_electric rail_fast ship" speed="7.88" length="4.23" shape="2210.03,2695.55 2209.56,2691.81 2209.75,2691.39"/>
    </edge>
    <edge id=":4486134560_3" function="internal">
        <lane id=":4486134560_3_0" index="0" disallow="tram rail_urban rail rail_electric rail_fast ship" speed="3.68" length="1.87" shape="2210.03,2695.55 2210.72,2694.25 2211.05,2694.04"/>
    </edge>
    <edge id=":4486134560_16" function="internal">
        <lane id=":4486134560_16_0" index="0" disallow="tram rail_urban rail rail_electric rail_fast ship" speed="7.88" length="11.45" shape="2209.75,2691.39 2210.87,2688.92 2213.97,2686.88 2218.85,2685.69"/>
    </edge>
    <edge id=":4486134560_17" function="internal">
        <lane id=":4486134560_17_0" index="0" disallow="tram rail_urban rail rail_electric rail_fast ship" speed="3.68" length="2.91" shape="2211.05,2694.04 2211.49,2693.76 2212.35,2694.08 2213.29,2695.22"/>
    </edge>
    <edge id=":4486134560_4" function="internal">
        <lane id=":4486134560_4_0" index="0" disallow="tram rail_urban rail rail_electric rail_fast ship" speed="6.51" length="10.32" shape="2219.27,2688.86 2216.00,2689.64 2213.91,2690.96 2213.01,2692.82 2213.29,2695.22"/>
    </edge>
    <edge id=":4486134560_5" function="internal">
        <lane id=":4486134560_5_0" index="0" disallow="tram rail_urban rail rail_electric rail_fast ship" speed="9.72" length="16.51" shape="2219.27,2688.86 2215.29,2689.15 2211.02,2689.03 2206.79,2688.49 2202.93,2687.53"/>
    </edge>
    <edge id=":4486134560_6" function="internal">
        <lane id=":4486134560_6_0" index="0" disallow="tram rail_urban rail rail_electric rail_fast ship" speed="5.56" length="15.63" shape="2219.27,2688.86 2214.76,2688.82 2211.83,2687.29 2210.50,2684.27 2210.75,2679.77"/>
    </edge>
    <edge id=":4486134560_7" function="internal">
        <lane id=":4486134560_7_0" index="0" disallow="tram rail_urban rail rail_electric rail_fast ship" speed="3.65" length="4.67" shape="2219.27,2688.86 2217.98,2688.22 2217.47,2687.48 2217.77,2686.64 2218.85,2685.69"/>
    </edge>
    <edge id=":4486134560_8" function="internal">
        <lane id=":4486134560_8_0" index="0" disallow="tram rail_urban rail rail_electric rail_fast ship" speed="5.56" length="9.10" shape="2213.89,2680.39 2213.74,2683.02 2214.52,2684.77 2216.22,2685.66 2218.85,2685.69"/>
    </edge>
    <edge id=":4486134560_9" function="internal">
        <lane id=":4486134560_9_0" index="0" disallow="tram rail_urban rail rail_electric rail_fast ship" speed="9.72" length="15.00" shape="2213.89,2680.39 2213.16,2684.11 2212.64,2687.86 2212.59,2691.59 2213.29,2695.22"/>
    </edge>
    <edge id=":4486134560_10" function="internal">
        <lane id=":4486134560_10_0" index="0" disallow="tram rail_urban rail rail_electric rail_fast ship" speed="7.96" length="15.35" shape="2213.89,2680.39 2212.45,2684.62 2210.14,2687.22 2206.97,2688.19 2202.93,2687.53"/>
    </edge>
    <edge id=":4486134560_11" function="internal">
        <lane id=":4486134560_11_0" index="0" disallow="tram rail_urban rail rail_electric rail_fast ship" speed="3.65" length="4.67" shape="2213.89,2680.39 2212.87,2681.41 2212.00,2681.65 2211.30,2681.10 2210.75,2679.77"/>
    </edge>
    <edge id=":4486134560_12" function="internal">
        <lane id=":4486134560_12_0" index="0" disallow="tram rail_urban rail rail_electric rail_fast ship" speed="6.46" length="9.73" shape="2203.93,2684.49 2206.42,2684.87 2208.39,2684.22 2209.83,2682.51 2210.75,2679.77"/>
    </edge>
    <edge id=":4486134560_13" function="internal">
        <lane id=":4486134560_13_0" index="0" disallow="tram rail_urban rail rail_electric rail_fast ship" speed="9.72" length="15.09" shape="2203.93,2684.49 2207.57,2685.43 2211.31,2685.92 2215.09,2686.00 2218.85,2685.69"/>
    </edge>
    <edge id=":4486134560_14" function="internal">
        <lane id=":4486134560_14_0" index="0" disallow="tram rail_urban rail rail_electric rail_fast ship" speed="11.18" length="14.77" shape="2203.93,2684.49 2206.97,2685.97 2209.54,2688.25 2211.65,2691.33 2213.29,2695.22"/>
    </edge>
    <edge id=":4486134560_15" function="internal">
        <lane id=":4486134560_15_0" index="0" disallow="tram rail_urban rail rail_electric rail_fast ship" speed="3.65" length="2.54" shape="2203.93,2684.49 2204.82,2685.62 2204.95,2686.51 2204.80,2686.65"/>
    </edge>
    <edge id=":4486134560_18" function="internal">
        <lane id=":4486134560_18_0" index="0" disallow="tram rail_urban rail rail_electric rail_fast ship" speed="3.65" length="2.13" shape="2204.80,2686.65 2204.32,2687.14 2202.93,2687.53"/>
    </edge>
    <edge id=":5130233478_0" function="internal">
        <lane id=":5130233478_0_0" index="0" disallow="tram rail_urban rail rail_electric rail_fast ship" speed="6.08" length="7.60" shape="2131.23,2974.64 2129.20,2975.07 2127.50,2974.75 2126.14,2973.68 2125.13,2971.87"/>
    </edge>
    <edge id=":5130233478_1" function="internal">
        <lane id=":5130233478_1_0" index="0" disallow="tram rail_urban rail rail_electric rail_fast ship" speed="3.65" length="4.67" shape="2131.23,2974.64 2129.83,2974.30 2129.18,2973.68 2129.29,2972.79 2130.14,2971.63"/>
    </edge>
    <edge id=":5130233478_2" function="internal">
        <lane id=":5130233478_2_0" index="0" disallow="tram rail_urban rail rail_electric rail_fast ship" speed="3.91" length="2.53" shape="2128.11,2970.71 2128.45,2971.31 2128.90,2971.67 2129.46,2971.77 2130.14,2971.63"/>
    </edge>
    <edge id=":5130233478_3" function="internal">
        <lane id=":5130233478_3_0" index="0" disallow="tram rail_urban rail rail_electric rail_fast ship" speed="3.65" length="4.67" shape="2128.11,2970.71 2127.80,2972.12 2127.20,2972.78 2126.31,2972.70 2125.13,2971.87"/>
    </edge>
    <edge id=":5130333344_0" function="internal">
        <lane id=":5130333344_0_0" index="0" disallow="tram rail_urban rail rail_electric rail_fast ship" speed="6.07" length="8.41" shape="2289.80,2923.65 2290.44,2925.90 2290.17,2927.74 2288.97,2929.17 2286.86,2930.19"/>
    </edge>
    <edge id=":5130333344_1" function="internal">
        <lane id=":5130333344_1_0" index="0" disallow="tram rail_urban rail rail_electric rail_fast ship" speed="3.65" length="2.63" shape="2289.80,2923.65 2289.56,2925.07 2288.99,2925.76 2288.71,2925.75"/>
    </edge>
    <edge id=":5130333344_4" function="internal">
        <lane id=":5130333344_4_0" index="0" disallow="tram rail_urban rail rail_electric rail_fast ship" speed="3.65" length="2.05" shape="2288.71,2925.75 2288.10,2925.72 2286.88,2924.95"/>
    </edge>
    <edge id=":5130333344_2" function="internal">
        <lane id=":5130333344_2_0" index="0" disallow="tram rail_urban rail rail_electric rail_fast ship" speed="3.90" length="2.80" shape="2285.90,2927.13 2286.60,2926.79 2287.00,2926.32 2287.09,2925.70 2286.88,2924.95"/>
    </edge>
    <edge id=":5130333344_3" function="internal">
        <lane id=":5130333344_3_0" index="0" disallow="tram rail_urban rail rail_electric rail_fast ship" speed="3.65" length="2.08" shape="2285.90,2927.13 2287.29,2927.54 2287.73,2927.99"/>
    </edge>
    <edge id=":5130333344_5" function="internal">
        <lane id=":5130333344_5_0" index="0" disallow="tram rail_urban rail rail_electric rail_fast ship" speed="3.65" length="2.59" shape="2287.73,2927.99 2287.91,2928.18 2287.77,2929.06 2286.86,2930.19"/>
    </edge>
    <edge id=":5939976763_0" function="internal">
        <lane id=":5939976763_0_0" index="0" speed="3.90" length="2.70" shape="2459.35,2564.35 2459.21,2563.61 2458.87,2563.12 2458.32,2562.86 2457.58,2562.83"/>
    </edge>
    <edge id=":5939976763_1" function="internal">
        <lane id=":5939976763_1_0" index="0" disallow="tram rail_urban rail rail_electric rail_fast ship" speed="3.65" length="4.67" shape="2459.35,2564.35 2460.09,2563.11 2460.87,2562.67 2461.69,2563.04 2462.55,2564.20"/>
    </edge>
    <edge id=":5939976763_2" function="internal">
        <lane id=":5939976763_2_0" index="0" disallow="tram rail_urban rail rail_electric rail_fast ship" speed="6.07" length="8.10" shape="2457.23,2559.65 2459.47,2559.73 2461.10,2560.51 2462.12,2562.00 2462.55,2564.20"/>
    </edge>
    <edge id=":6584935018_0" function="internal">
        <lane id=":6584935018_0_0" index="0" disallow="tram rail_urban rail rail_electric rail_fast ship" speed="13.89" length="0.31" shape="2242.97,2943.32 2242.67,2943.41"/>
    </edge>
    <edge id=":6584935018_1" function="internal">
        <lane id=":6584935018_1_0" index="0" disallow="tram rail_urban rail rail_electric rail_fast ship" speed="3.65" length="2.34" shape="2242.97,2943.32 2241.59,2942.90 2240.98,2942.25"/>
    </edge>
    <edge id=":6584935018_4" function="internal">
        <lane id=":6584935018_4_0" index="0" disallow="tram rail_urban rail rail_electric rail_fast ship" speed="3.65" length="2.34" shape="2240.98,2942.25 2241.14,2941.36 2242.06,2940.26"/>
    </edge>
    <edge id=":6584935018_2" function="internal">
        <lane id=":6584935018_2_0" index="0" disallow="tram rail_urban rail rail_electric rail_fast ship" speed="13.89" length="0.25" shape="2241.82,2940.32 2242.06,2940.26"/>
    </edge>
    <edge id=":6584935018_3" function="internal">
        <lane id=":6584935018_3_0" index="0" disallow="tram rail_urban rail rail_electric rail_fast ship" speed="3.65" length="2.34" shape="2241.82,2940.32 2243.19,2940.78 2243.79,2941.44"/>
    </edge>
    <edge id=":6584935018_5" function="internal">
        <lane id=":6584935018_5_0" index="0" disallow="tram rail_urban rail rail_electric rail_fast ship" speed="3.65" length="2.34" shape="2243.79,2941.44 2243.61,2942.32 2242.67,2943.41"/>
    </edge>
    <edge id=":6584935028_0" function="internal">
        <lane id=":6584935028_0_0" index="0" disallow="tram rail_urban rail rail_electric rail_fast ship" speed="6.89" length="9.35" shape="2253.42,2849.53 2252.12,2847.46 2250.40,2846.22 2248.26,2845.82 2245.69,2846.25"/>
    </edge>
    <edge id=":6584935028_1" function="internal">
        <lane id=":6584935028_1_0" index="0" disallow="tram rail_urban rail rail_electric rail_fast ship" speed="13.89" length="14.24" shape="2253.42,2849.53 2248.40,2836.21"/>
    </edge>
    <edge id=":6584935028_2" function="internal">
        <lane id=":6584935028_2_0" index="0" disallow="tram rail_urban rail rail_electric rail_fast ship" speed="3.65" length="2.34" shape="2253.42,2849.53 2253.67,2848.11 2254.25,2847.42"/>
    </edge>
    <edge id=":6584935028_9" function="internal">
        <lane id=":6584935028_9_0" index="0" disallow="tram rail_urban rail rail_electric rail_fast ship" speed="3.65" length="2.34" shape="2254.25,2847.42 2255.14,2847.47 2256.35,2848.25"/>
    </edge>
    <edge id=":6584935028_3" function="internal">
        <lane id=":6584935028_3_0" index="0" disallow="tram rail_urban rail rail_electric rail_fast ship" speed="13.89" length="13.92" shape="2251.45,2835.22 2256.35,2848.25"/>
    </edge>
    <edge id=":6584935028_4" function="internal">
        <lane id=":6584935028_4_0" index="0" disallow="tram rail_urban rail rail_electric rail_fast ship" speed="7.82" length="5.99" shape="2251.45,2835.22 2252.37,2839.00 2251.94,2841.05"/>
    </edge>
    <edge id=":6584935028_5" function="internal">
        <lane id=":6584935028_5_0" index="0" disallow="tram rail_urban rail rail_electric rail_fast ship" speed="3.65" length="2.34" shape="2251.45,2835.22 2251.06,2836.62 2250.42,2837.24"/>
    </edge>
    <edge id=":6584935028_10" function="internal">
        <lane id=":6584935028_10_0" index="0" disallow="tram rail_urban rail rail_electric rail_fast ship" speed="7.82" length="8.53" shape="2251.94,2841.05 2251.71,2842.10 2249.49,2844.52 2245.69,2846.25"/>
    </edge>
    <edge id=":6584935028_11" function="internal">
        <lane id=":6584935028_11_0" index="0" disallow="tram rail_urban rail rail_electric rail_fast ship" speed="3.65" length="2.34" shape="2250.42,2837.24 2249.53,2837.11 2248.40,2836.21"/>
    </edge>
    <edge id=":6584935028_6" function="internal">
        <lane id=":6584935028_6_0" index="0" disallow="tram rail_urban rail rail_electric rail_fast ship" speed="6.36" length="9.19" shape="2244.75,2843.19 2247.16,2842.09 2248.57,2840.56 2248.98,2838.60 2248.40,2836.21"/>
    </edge>
    <edge id=":6584935028_7" function="internal">
        <lane id=":6584935028_7_0" index="0" disallow="tram rail_urban rail rail_electric rail_fast ship" speed="8.33" length="14.09" shape="2244.75,2843.19 2248.59,2842.56 2251.80,2843.19 2254.39,2845.09 2256.35,2848.25"/>
    </edge>
    <edge id=":6584935028_8" function="internal">
        <lane id=":6584935028_8_0" index="0" disallow="tram rail_urban rail rail_electric rail_fast ship" speed="3.65" length="4.67" shape="2244.75,2843.19 2246.13,2843.61 2246.75,2844.26 2246.60,2845.14 2245.69,2846.25"/>
    </edge>
    <edge id=":6584935029_0" function="internal">
        <lane id=":6584935029_0_0" index="0" disallow="tram rail_urban rail rail_electric rail_fast ship" speed="3.65" length="4.67" shape="2188.36,2863.74 2186.98,2863.33 2186.36,2862.68 2186.51,2861.79 2187.42,2860.68"/>
    </edge>
    <edge id=":6584935051_0" function="internal">
        <lane id=":6584935051_0_0" index="0" disallow="tram rail_urban rail rail_electric rail_fast ship" speed="13.89" length="14.90" shape="2236.83,2808.22 2235.57,2804.70 2234.48,2801.13 2233.27,2797.62 2231.66,2794.27"/>
    </edge>
    <edge id=":6584935051_1" function="internal">
        <lane id=":6584935051_1_0" index="0" disallow="tram rail_urban rail rail_electric rail_fast ship" speed="7.96" length="6.79" shape="2236.83,2808.22 2235.86,2804.40 2236.32,2801.59"/>
    </edge>
    <edge id=":6584935051_2" function="internal">
        <lane id=":6584935051_2_0" index="0" disallow="tram rail_urban rail rail_electric rail_fast ship" speed="3.65" length="2.34" shape="2236.83,2808.22 2237.11,2806.81 2237.69,2806.13"/>
    </edge>
    <edge id=":6584935051_9" function="internal">
        <lane id=":6584935051_9_0" index="0" disallow="tram rail_urban rail rail_electric rail_fast ship" speed="7.96" length="7.63" shape="2236.32,2801.59 2236.38,2801.21 2238.40,2798.67 2241.91,2796.76"/>
    </edge>
    <edge id=":6584935051_10" function="internal">
        <lane id=":6584935051_10_0" index="0" disallow="tram rail_urban rail rail_electric rail_fast ship" speed="3.65" length="2.34" shape="2237.69,2806.13 2238.59,2806.20 2239.78,2807.00"/>
    </edge>
    <edge id=":6584935051_3" function="internal">
        <lane id=":6584935051_3_0" index="0" disallow="tram rail_urban rail rail_electric rail_fast ship" speed="6.46" length="9.12" shape="2243.03,2799.76 2240.80,2800.97 2239.51,2802.58 2239.18,2804.59 2239.78,2807.00"/>
    </edge>
    <edge id=":6584935051_4" function="internal">
        <lane id=":6584935051_4_0" index="0" disallow="tram rail_urban rail rail_electric rail_fast ship" speed="8.46" length="13.86" shape="2243.03,2799.76 2239.81,2800.35 2236.84,2799.63 2234.13,2797.61 2231.66,2794.27"/>
    </edge>
    <edge id=":6584935051_5" function="internal">
        <lane id=":6584935051_5_0" index="0" disallow="tram rail_urban rail rail_electric rail_fast ship" speed="3.65" length="4.67" shape="2243.03,2799.76 2241.63,2799.43 2240.97,2798.82 2241.07,2797.93 2241.91,2796.76"/>
    </edge>
    <edge id=":6584935051_6" function="internal">
        <lane id=":6584935051_6_0" index="0" disallow="tram rail_urban rail rail_electric rail_fast ship" speed="6.81" length="8.66" shape="2234.82,2793.33 2236.36,2795.41 2238.05,2796.68 2239.91,2797.13 2241.91,2796.76"/>
    </edge>
    <edge id=":6584935051_7" function="internal">
        <lane id=":6584935051_7_0" index="0" disallow="tram rail_urban rail rail_electric rail_fast ship" speed="13.89" length="14.57" shape="2234.82,2793.33 2236.39,2796.63 2237.53,2800.05 2238.56,2803.52 2239.78,2807.00"/>
    </edge>
    <edge id=":6584935051_8" function="internal">
        <lane id=":6584935051_8_0" index="0" disallow="tram rail_urban rail rail_electric rail_fast ship" speed="3.69" length="2.17" shape="2234.82,2793.33 2234.38,2794.75 2233.89,2795.21"/>
    </edge>
    <edge id=":6584935051_11" function="internal">
        <lane id=":6584935051_11_0" index="0" disallow="tram rail_urban rail rail_electric rail_fast ship" speed="3.69" length="2.65" shape="2233.89,2795.21 2233.71,2795.38 2232.81,2795.22 2231.66,2794.27"/>
    </edge>
    <edge id=":6584935052_0" function="internal">
        <lane id=":6584935052_0_0" index="0" disallow="tram rail_urban rail rail_electric rail_fast ship" speed="6.77" length="9.34" shape="2284.47,2790.18 2283.13,2788.13 2281.39,2786.95 2279.24,2786.65 2276.69,2787.23"/>
    </edge>
    <edge id=":6584935052_1" function="internal">
        <lane id=":6584935052_1_0" index="0" disallow="tram rail_urban rail rail_electric rail_fast ship" speed="5.56" length="14.37" shape="2284.47,2790.18 2278.67,2777.03"/>
    </edge>
    <edge id=":6584935052_2" function="internal">
        <lane id=":6584935052_2_0" index="0" disallow="tram rail_urban rail rail_electric rail_fast ship" speed="3.65" length="4.67" shape="2284.47,2790.18 2284.70,2788.76 2285.26,2788.06 2286.15,2788.10 2287.38,2788.86"/>
    </edge>
    <edge id=":6584935052_3" function="internal">
        <lane id=":6584935052_3_0" index="0" disallow="tram rail_urban rail rail_electric rail_fast ship" speed="5.56" length="14.30" shape="2281.61,2775.78 2287.38,2788.86"/>
    </edge>
    <edge id=":6584935052_4" function="internal">
        <lane id=":6584935052_4_0" index="0" disallow="tram rail_urban rail rail_electric rail_fast ship" speed="7.92" length="14.38" shape="2281.61,2775.78 2282.63,2779.61 2282.16,2782.80 2280.18,2785.34 2276.69,2787.23"/>
    </edge>
    <edge id=":6584935052_5" function="internal">
        <lane id=":6584935052_5_0" index="0" disallow="tram rail_urban rail rail_electric rail_fast ship" speed="3.65" length="4.67" shape="2281.61,2775.78 2281.35,2777.19 2280.77,2777.88 2279.88,2777.82 2278.67,2777.03"/>
    </edge>
    <edge id=":6584935052_6" function="internal">
        <lane id=":6584935052_6_0" index="0" disallow="tram rail_urban rail rail_electric rail_fast ship" speed="6.41" length="9.04" shape="2275.58,2784.24 2277.77,2783.04 2279.01,2781.45 2279.31,2779.44 2278.67,2777.03"/>
    </edge>
    <edge id=":6584935052_7" function="internal">
        <lane id=":6584935052_7_0" index="0" disallow="tram rail_urban rail rail_electric rail_fast ship" speed="8.23" length="14.24" shape="2275.58,2784.24 2279.42,2783.37 2282.67,2783.85 2285.33,2785.68 2287.38,2788.86"/>
    </edge>
    <edge id=":6584935052_8" function="internal">
        <lane id=":6584935052_8_0" index="0" disallow="tram rail_urban rail rail_electric rail_fast ship" speed="3.65" length="4.67" shape="2275.58,2784.24 2276.98,2784.57 2277.63,2785.18 2277.54,2786.07 2276.69,2787.23"/>
    </edge>

    <edge id="-210617558#1" from="5130233478" to="1553949743" priority="10" type="highway.tertiary" shape="2127.75,2974.20 2110.79,2930.70 2094.78,2877.54 2077.30,2805.85 2063.08,2750.35 2046.99,2709.14">
        <lane id="-210617558#1_0" index="0" disallow="tram rail_urban rail rail_electric rail_fast ship" speed="22.22" length="271.34" shape="2125.13,2971.87 2109.28,2931.22 2093.24,2877.96 2075.75,2806.24 2061.55,2750.84 2046.61,2712.58"/>
    </edge>
    <edge id="-451798708#2" from="6584935052" to="4486134396" priority="1" type="highway.track" shape="2283.03,2783.17 2296.43,2812.57 2308.01,2837.27 2336.47,2849.11 2471.42,2791.57">
        <lane id="-451798708#2_0" index="0" disallow="tram rail_urban rail rail_electric rail_fast ship" speed="5.56" length="225.32" shape="2287.38,2788.86 2297.88,2811.90 2309.20,2836.03 2336.46,2847.37 2468.75,2790.97"/>
    </edge>
    <edge id="-451798708#3" from="4486134560" to="6584935052" priority="1" type="highway.track" shape="2210.66,2688.39 2220.14,2687.13 2226.65,2685.55 2240.37,2694.16 2246.11,2696.78 2283.03,2783.17">
        <lane id="-451798708#3_0" index="0" disallow="tram rail_urban rail rail_electric rail_fast ship" speed="5.56" length="119.10" shape="2218.85,2685.69 2219.85,2685.56 2226.93,2683.84 2241.13,2692.75 2247.34,2695.58 2281.61,2775.78"/>
    </edge>