<?xml version="1.0" encoding="UTF-8"?>

<!-- generated on Thu 12 Mar 2020 06:59:21 AM WITA by Eclipse SUMO netedit Version 1.4.0
<configuration xmlns:xsi="http://www.w3.org/2001/XMLSchema-instance" xsi:noNamespaceSchemaLocation="http://sumo.dlr.de/xsd/netconvertConfiguration.xsd">

    <input>
        <sumo-net-file value="sebudi_edit2.net.xml"/>
    </input>

    <output>
        <output-file value="/home/adisaputra/NS/voip/Project-Jitter-Buffer-master/osmfiles/netfiles/sebudi_edit3.net.xml"/>
    </output>

    <processing>
        <geometry.min-radius.fix.railways value="false"/>
        <geometry.max-grade.fix value="false"/>
        <offset.disable-normalization value="true"/>
        <lefthand value="false"/>
    </processing>

    <junctions>
        <no-turnarounds value="true"/>
        <junctions.corner-detail value="5"/>
        <junctions.limit-turn-speed value="5.5"/>
        <rectangular-lane-cut value="false"/>
    </junctions>

    <pedestrian>
        <walkingareas value="false"/>
    </pedestrian>

    <report>
        <aggregate-warnings value="5"/>
    </report>

</configuration>
-->

<net version="1.3" junctionCornerDetail="5" limitTurnSpeed="5.50" xmlns:xsi="http://www.w3.org/2001/XMLSchema-instance" xsi:noNamespaceSchemaLocation="http://sumo.dlr.de/xsd/net_file.xsd">

    <location netOffset="-329165.89,930795.17" convBoundary="18.57,0.00,3234.80,4455.53" origBoundary="115.448347,-8.417527,115.477864,-8.377353" projParameter="+proj=utm +zone=50 +ellps=WGS84 +datum=WGS84 +units=m +no_defs"/>

    <type id="highway.bridleway" priority="1" numLanes="1" speed="2.78" allow="pedestrian" oneway="1" width="2.00"/>
    <type id="highway.bus_guideway" priority="1" numLanes="1" speed="27.78" allow="bus" oneway="1"/>
    <type id="highway.cycleway" priority="1" numLanes="1" speed="8.33" allow="bicycle" oneway="0" width="1.00"/>
    <type id="highway.footway" priority="1" numLanes="1" speed="2.78" allow="pedestrian" oneway="1" width="2.00"/>
    <type id="highway.ford" priority="1" numLanes="1" speed="2.78" allow="army" oneway="0"/>
    <type id="highway.living_street" priority="2" numLanes="1" speed="2.78" disallow="tram rail_urban rail rail_electric rail_fast ship" oneway="0"/>
    <type id="highway.motorway" priority="14" numLanes="2" speed="39.44" allow="private emergency authority army vip passenger hov taxi bus coach delivery truck trailer motorcycle evehicle custom1 custom2" oneway="1"/>
    <type id="highway.motorway_link" priority="9" numLanes="1" speed="22.22" allow="private emergency authority army vip passenger hov taxi bus coach delivery truck trailer motorcycle evehicle custom1 custom2" oneway="1"/>
    <type id="highway.path" priority="1" numLanes="1" speed="2.78" allow="pedestrian bicycle" oneway="1" width="2.00"/>
    <type id="highway.pedestrian" priority="1" numLanes="1" speed="2.78" allow="pedestrian" oneway="1" width="2.00"/>
    <type id="highway.primary" priority="12" numLanes="2" speed="27.78" disallow="tram rail_urban rail rail_electric rail_fast ship" oneway="0"/>
    <type id="highway.primary_link" priority="7" numLanes="1" speed="22.22" disallow="tram rail_urban rail rail_electric rail_fast ship" oneway="0"/>
    <type id="highway.raceway" priority="15" numLanes="2" speed="83.33" allow="vip" oneway="0"/>
    <type id="highway.residential" priority="3" numLanes="1" speed="13.89" disallow="tram rail_urban rail rail_electric rail_fast ship" oneway="0"/>
    <type id="highway.secondary" priority="11" numLanes="1" speed="27.78" disallow="tram rail_urban rail rail_electric rail_fast ship" oneway="0"/>
    <type id="highway.secondary_link" priority="6" numLanes="1" speed="22.22" disallow="tram rail_urban rail rail_electric rail_fast ship" oneway="0"/>
    <type id="highway.service" priority="1" numLanes="1" speed="5.56" allow="pedestrian delivery bicycle" oneway="0"/>
    <type id="highway.stairs" priority="1" numLanes="1" speed="1.39" allow="pedestrian" oneway="1" width="2.00"/>
    <type id="highway.step" priority="1" numLanes="1" speed="1.39" allow="pedestrian" oneway="1" width="2.00"/>
    <type id="highway.steps" priority="1" numLanes="1" speed="1.39" allow="pedestrian" oneway="1" width="2.00"/>
    <type id="highway.tertiary" priority="10" numLanes="1" speed="22.22" disallow="tram rail_urban rail rail_electric rail_fast ship" oneway="0"/>
    <type id="highway.tertiary_link" priority="5" numLanes="1" speed="22.22" disallow="tram rail_urban rail rail_electric rail_fast ship" oneway="0"/>
    <type id="highway.track" priority="1" numLanes="1" speed="5.56" disallow="tram rail_urban rail rail_electric rail_fast ship" oneway="0"/>
    <type id="highway.trunk" priority="13" numLanes="2" speed="27.78" disallow="pedestrian bicycle tram rail_urban rail rail_electric rail_fast ship" oneway="0"/>
    <type id="highway.trunk_link" priority="8" numLanes="1" speed="22.22" disallow="pedestrian bicycle tram rail_urban rail rail_electric rail_fast ship" oneway="0"/>
    <type id="highway.unclassified" priority="4" numLanes="1" speed="13.89" disallow="tram rail_urban rail rail_electric rail_fast ship" oneway="0"/>
    <type id="highway.unsurfaced" priority="1" numLanes="1" speed="8.33" disallow="tram rail_urban rail rail_electric rail_fast ship" oneway="0"/>
    <type id="railway.highspeed" priority="21" numLanes="1" speed="69.44" allow="rail_fast" oneway="1"/>
    <type id="railway.light_rail" priority="19" numLanes="1" speed="27.78" allow="rail_urban" oneway="1"/>
    <type id="railway.preserved" priority="16" numLanes="1" speed="27.78" allow="rail" oneway="1"/>
    <type id="railway.rail" priority="20" numLanes="1" speed="44.44" allow="rail" oneway="1"/>
    <type id="railway.subway" priority="18" numLanes="1" speed="27.78" allow="rail_urban" oneway="1"/>
    <type id="railway.tram" priority="17" numLanes="1" speed="13.89" allow="tram" oneway="1"/>

    <edge id=":1553949743_0" function="internal">
        <lane id=":1553949743_0_0" index="0" disallow="tram rail_urban rail rail_electric rail_fast ship" speed="6.08" length="7.50" shape="2046.61,2712.58 2046.15,2710.59 2046.41,2708.90 2047.41,2707.52 2049.15,2706.44"/>
    </edge>
    <edge id=":1553949743_1" function="internal">
        <lane id=":1553949743_1_0" index="0" disallow="tram rail_urban rail rail_electric rail_fast ship" speed="3.65" length="4.67" shape="2046.61,2712.58 2046.92,2711.17 2047.52,2710.51 2048.41,2710.59 2049.60,2711.41"/>
    </edge>
    <edge id=":1553949743_2" function="internal">
        <lane id=":1553949743_2_0" index="0" disallow="tram rail_urban rail rail_electric rail_fast ship" speed="3.91" length="2.50" shape="2050.44,2709.37 2049.86,2709.73 2049.53,2710.19 2049.44,2710.75 2049.60,2711.41"/>
    </edge>
    <edge id=":1553949743_3" function="internal">
        <lane id=":1553949743_3_0" index="0" disallow="tram rail_urban rail rail_electric rail_fast ship" speed="3.65" length="4.67" shape="2050.44,2709.37 2049.02,2709.12 2048.33,2708.55 2048.38,2707.66 2049.15,2706.44"/>
    </edge>
    <edge id=":4486134560_0" function="internal">
        <lane id=":4486134560_0_0" index="0" disallow="tram rail_urban rail rail_electric rail_fast ship" speed="9.05" length="9.50" shape="2209.99,2695.43 2208.88,2692.62 2207.59,2690.46 2206.14,2688.93 2204.51,2688.05"/>
    </edge>
    <edge id=":4486134560_1" function="internal">
        <lane id=":4486134560_1_0" index="0" disallow="tram rail_urban rail rail_electric rail_fast ship" speed="7.57" length="4.46" shape="2209.99,2695.43 2209.44,2691.75 2209.70,2691.05"/>
    </edge>
    <edge id=":4486134560_2" function="internal">
        <lane id=":4486134560_2_0" index="0" disallow="tram rail_urban rail rail_electric rail_fast ship" speed="3.68" length="1.91" shape="2209.99,2695.43 2210.68,2694.12 2211.04,2693.89"/>
    </edge>
    <edge id=":4486134560_9" function="internal">
        <lane id=":4486134560_9_0" index="0" disallow="tram rail_urban rail rail_electric rail_fast ship" speed="7.57" length="9.90" shape="2209.70,2691.05 2210.48,2688.94 2213.12,2686.98 2217.35,2685.89"/>
    </edge>
    <edge id=":4486134560_10" function="internal">
        <lane id=":4486134560_10_0" index="0" disallow="tram rail_urban rail rail_electric rail_fast ship" speed="3.68" length="2.88" shape="2211.04,2693.89 2211.45,2693.63 2212.31,2693.96 2213.25,2695.10"/>
    </edge>
    <edge id=":4486134560_3" function="internal">
        <lane id=":4486134560_3_0" index="0" disallow="tram rail_urban rail rail_electric rail_fast ship" speed="6.13" length="9.00" shape="2217.77,2689.06 2215.15,2689.75 2213.52,2690.98 2212.89,2692.77 2213.25,2695.10"/>
    </edge>
    <edge id=":4486134560_4" function="internal">
        <lane id=":4486134560_4_0" index="0" disallow="tram rail_urban rail rail_electric rail_fast ship" speed="9.72" length="13.43" shape="2217.77,2689.06 2214.28,2689.40 2211.06,2689.39 2207.89,2688.96 2204.51,2688.05"/>
    </edge>
    <edge id=":4486134560_5" function="internal">
        <lane id=":4486134560_5_0" index="0" disallow="tram rail_urban rail rail_electric rail_fast ship" speed="3.65" length="4.67" shape="2217.77,2689.06 2216.48,2688.42 2215.98,2687.68 2216.27,2686.84 2217.35,2685.89"/>
    </edge>
    <edge id=":4486134560_6" function="internal">
        <lane id=":4486134560_6_0" index="0" disallow="tram rail_urban rail rail_electric rail_fast ship" speed="9.72" length="12.01" shape="2205.51,2685.01 2208.67,2685.90 2211.35,2686.28 2214.08,2686.25 2217.35,2685.89"/>
    </edge>
    <edge id=":4486134560_7" function="internal">
        <lane id=":4486134560_7_0" index="0" disallow="tram rail_urban rail rail_electric rail_fast ship" speed="10.57" length="13.15" shape="2205.51,2685.01 2207.86,2686.25 2209.93,2688.35 2211.72,2691.30 2213.25,2695.10"/>
    </edge>
    <edge id=":4486134560_8" function="internal">
        <lane id=":4486134560_8_0" index="0" disallow="tram rail_urban rail rail_electric rail_fast ship" speed="3.65" length="2.61" shape="2205.51,2685.01 2206.40,2686.14 2206.53,2687.03 2206.34,2687.22"/>
    </edge>
    <edge id=":4486134560_11" function="internal">
        <lane id=":4486134560_11_0" index="0" disallow="tram rail_urban rail rail_electric rail_fast ship" speed="3.65" length="2.07" shape="2206.34,2687.22 2205.90,2687.66 2204.51,2688.05"/>
    </edge>
    <edge id=":5130233478_0" function="internal">
        <lane id=":5130233478_0_0" index="0" disallow="tram rail_urban rail rail_electric rail_fast ship" speed="6.08" length="7.60" shape="2131.23,2974.64 2129.20,2975.07 2127.50,2974.75 2126.14,2973.68 2125.13,2971.87"/>
    </edge>
    <edge id=":5130233478_1" function="internal">
        <lane id=":5130233478_1_0" index="0" disallow="tram rail_urban rail rail_electric rail_fast ship" speed="3.65" length="4.67" shape="2131.23,2974.64 2129.83,2974.30 2129.18,2973.68 2129.29,2972.79 2130.14,2971.63"/>
    </edge>
    <edge id=":5130233478_2" function="internal">
        <lane id=":5130233478_2_0" index="0" disallow="tram rail_urban rail rail_electric rail_fast ship" speed="3.91" length="2.53" shape="2128.11,2970.71 2128.45,2971.31 2128.90,2971.67 2129.46,2971.77 2130.14,2971.63"/>
    </edge>
    <edge id=":5130233478_3" function="internal">
        <lane id=":5130233478_3_0" index="0" disallow="tram rail_urban rail rail_electric rail_fast ship" speed="3.65" length="4.67" shape="2128.11,2970.71 2127.80,2972.12 2127.20,2972.78 2126.31,2972.70 2125.13,2971.87"/>
    </edge>
    <edge id=":5130333344_0" function="internal">
        <lane id=":5130333344_0_0" index="0" disallow="tram rail_urban rail rail_electric rail_fast ship" speed="7.17" length="9.78" shape="2291.43,2934.28 2290.00,2932.31 2288.12,2931.17 2285.80,2930.86 2283.05,2931.39"/>
    </edge>
    <edge id=":5130333344_1" function="internal">
        <lane id=":5130333344_1_0" index="0" disallow="tram rail_urban rail rail_electric rail_fast ship" speed="13.89" length="14.38" shape="2291.43,2934.28 2285.25,2921.30"/>
    </edge>
    <edge id=":5130333344_2" function="internal">
        <lane id=":5130333344_2_0" index="0" disallow="tram rail_urban rail rail_electric rail_fast ship" speed="3.65" length="2.34" shape="2291.43,2934.28 2291.60,2932.85 2292.13,2932.13"/>
    </edge>
    <edge id=":5130333344_9" function="internal">
        <lane id=":5130333344_9_0" index="0" disallow="tram rail_urban rail rail_electric rail_fast ship" speed="3.65" length="2.34" shape="2292.13,2932.13 2293.03,2932.12 2294.28,2932.83"/>
    </edge>
    <edge id=":5130333344_3" function="internal">
        <lane id=":5130333344_3_0" index="0" disallow="tram rail_urban rail rail_electric rail_fast ship" speed="13.89" length="14.21" shape="2288.17,2919.99 2294.28,2932.83"/>
    </edge>
    <edge id=":5130333344_4" function="internal">
        <lane id=":5130333344_4_0" index="0" disallow="tram rail_urban rail rail_electric rail_fast ship" speed="7.81" length="5.73" shape="2288.17,2919.99 2289.29,2923.92 2289.04,2925.55"/>
    </edge>
    <edge id=":5130333344_5" function="internal">
        <lane id=":5130333344_5_0" index="0" disallow="tram rail_urban rail rail_electric rail_fast ship" speed="3.65" length="2.34" shape="2288.17,2919.99 2287.93,2921.42 2287.36,2922.11"/>
    </edge>
    <edge id=":5130333344_10" function="internal">
        <lane id=":5130333344_10_0" index="0" disallow="tram rail_urban rail rail_electric rail_fast ship" speed="7.81" length="8.92" shape="2289.04,2925.55 2288.81,2927.13 2286.73,2929.62 2283.05,2931.39"/>
    </edge>
    <edge id=":5130333344_11" function="internal">
        <lane id=":5130333344_11_0" index="0" disallow="tram rail_urban rail rail_electric rail_fast ship" speed="3.65" length="2.34" shape="2287.36,2922.11 2286.47,2922.07 2285.25,2921.30"/>
    </edge>
    <edge id=":5130333344_6" function="internal">
        <lane id=":5130333344_6_0" index="0" disallow="tram rail_urban rail rail_electric rail_fast ship" speed="6.27" length="9.04" shape="2282.09,2928.33 2284.36,2927.24 2285.64,2925.71 2285.94,2923.73 2285.25,2921.30"/>
    </edge>
    <edge id=":5130333344_7" function="internal">
        <lane id=":5130333344_7_0" index="0" disallow="tram rail_urban rail rail_electric rail_fast ship" speed="8.57" length="14.33" shape="2282.09,2928.33 2286.05,2927.61 2289.40,2928.11 2292.15,2929.85 2294.28,2932.83"/>
    </edge>
    <edge id=":5130333344_8" function="internal">
        <lane id=":5130333344_8_0" index="0" disallow="tram rail_urban rail rail_electric rail_fast ship" speed="3.65" length="4.67" shape="2282.09,2928.33 2283.47,2928.74 2284.09,2929.38 2283.95,2930.26 2283.05,2931.39"/>
    </edge>
    <edge id=":5130333345_0" function="internal">
        <lane id=":5130333345_0_0" index="0" disallow="tram rail_urban rail rail_electric rail_fast ship" speed="6.07" length="8.10" shape="2308.75,2961.17 2309.47,2963.29 2309.32,2965.09 2308.29,2966.58 2306.38,2967.75"/>
    </edge>
    <edge id=":5130333345_1" function="internal">
        <lane id=":5130333345_1_0" index="0" disallow="tram rail_urban rail rail_electric rail_fast ship" speed="3.65" length="4.67" shape="2308.75,2961.17 2308.58,2962.60 2308.05,2963.32 2307.15,2963.33 2305.90,2962.62"/>
    </edge>
    <edge id=":5130333345_2" function="internal">
        <lane id=":5130333345_2_0" index="0" disallow="tram rail_urban rail rail_electric rail_fast ship" speed="3.90" length="2.70" shape="2305.11,2964.82 2305.74,2964.43 2306.09,2963.93 2306.14,2963.33 2305.90,2962.62"/>
    </edge>
    <edge id=":5130333345_3" function="internal">
        <lane id=":5130333345_3_0" index="0" disallow="tram rail_urban rail rail_electric rail_fast ship" speed="3.65" length="4.67" shape="2305.11,2964.82 2306.53,2965.07 2307.21,2965.65 2307.16,2966.54 2306.38,2967.75"/>
    </edge>
    <edge id=":6584935018_0" function="internal">
        <lane id=":6584935018_0_0" index="0" disallow="tram rail_urban rail rail_electric rail_fast ship" speed="7.01" length="9.64" shape="2243.79,2949.42 2242.44,2947.03 2240.72,2945.52 2238.65,2944.91 2236.22,2945.18"/>
    </edge>
    <edge id=":6584935018_1" function="internal">
        <lane id=":6584935018_1_0" index="0" disallow="tram rail_urban rail rail_electric rail_fast ship" speed="7.82" length="14.60" shape="2243.79,2949.42 2242.79,2945.48 2243.35,2942.29 2245.48,2939.85 2249.17,2938.15"/>
    </edge>
    <edge id=":6584935018_2" function="internal">
        <lane id=":6584935018_2_0" index="0" disallow="tram rail_urban rail rail_electric rail_fast ship" speed="3.65" length="4.67" shape="2243.79,2949.42 2244.07,2948.01 2244.66,2947.33 2245.55,2947.39 2246.75,2948.20"/>
    </edge>
    <edge id=":6584935018_3" function="internal">
        <lane id=":6584935018_3_0" index="0" disallow="tram rail_urban rail rail_electric rail_fast ship" speed="6.29" length="9.04" shape="2250.08,2941.22 2247.79,2942.27 2246.47,2943.78 2246.13,2945.76 2246.75,2948.20"/>
    </edge>
    <edge id=":6584935018_4" function="internal">
        <lane id=":6584935018_4_0" index="0" disallow="tram rail_urban rail rail_electric rail_fast ship" speed="13.89" length="14.41" shape="2250.08,2941.22 2236.22,2945.18"/>
    </edge>
    <edge id=":6584935018_5" function="internal">
        <lane id=":6584935018_5_0" index="0" disallow="tram rail_urban rail rail_electric rail_fast ship" speed="3.65" length="2.34" shape="2250.08,2941.22 2248.70,2940.79 2248.09,2940.14"/>
    </edge>
    <edge id=":6584935018_9" function="internal">
        <lane id=":6584935018_9_0" index="0" disallow="tram rail_urban rail rail_electric rail_fast ship" speed="3.65" length="2.34" shape="2248.09,2940.14 2248.24,2939.26 2249.17,2938.15"/>
    </edge>
    <edge id=":6584935018_6" function="internal">
        <lane id=":6584935018_6_0" index="0" disallow="tram rail_urban rail rail_electric rail_fast ship" speed="13.89" length="14.34" shape="2235.38,2942.09 2249.17,2938.15"/>
    </edge>
    <edge id=":6584935018_7" function="internal">
        <lane id=":6584935018_7_0" index="0" disallow="tram rail_urban rail rail_electric rail_fast ship" speed="8.43" length="5.63" shape="2235.38,2942.09 2239.07,2941.66 2240.91,2942.17"/>
    </edge>
    <edge id=":6584935018_8" function="internal">
        <lane id=":6584935018_8_0" index="0" disallow="tram rail_urban rail rail_electric rail_fast ship" speed="3.65" length="2.34" shape="2235.38,2942.09 2236.75,2942.55 2237.34,2943.21"/>
    </edge>
    <edge id=":6584935018_10" function="internal">
        <lane id=":6584935018_10_0" index="0" disallow="tram rail_urban rail rail_electric rail_fast ship" speed="8.43" length="8.71" shape="2240.91,2942.17 2242.19,2942.53 2244.75,2944.71 2246.75,2948.20"/>
    </edge>
    <edge id=":6584935018_11" function="internal">
        <lane id=":6584935018_11_0" index="0" disallow="tram rail_urban rail rail_electric rail_fast ship" speed="3.65" length="2.34" shape="2237.34,2943.21 2237.17,2944.09 2236.22,2945.18"/>
    </edge>
    <edge id=":6584935019_0" function="internal">
        <lane id=":6584935019_0_0" index="0" disallow="tram rail_urban rail rail_electric rail_fast ship" speed="6.08" length="7.83" shape="2264.23,2986.03 2262.16,2986.60 2260.41,2986.36 2258.98,2985.32 2257.89,2983.47"/>
    </edge>
    <edge id=":6584935019_1" function="internal">
        <lane id=":6584935019_1_0" index="0" disallow="tram rail_urban rail rail_electric rail_fast ship" speed="3.65" length="2.65" shape="2264.23,2986.03 2262.81,2985.78 2262.13,2985.20 2262.14,2984.88"/>
    </edge>
    <edge id=":6584935019_4" function="internal">
        <lane id=":6584935019_4_0" index="0" disallow="tram rail_urban rail rail_electric rail_fast ship" speed="3.65" length="2.02" shape="2262.14,2984.88 2262.18,2984.31 2262.96,2983.10"/>
    </edge>
    <edge id=":6584935019_2" function="internal">
        <lane id=":6584935019_2_0" index="0" disallow="tram rail_urban rail rail_electric rail_fast ship" speed="3.90" length="2.61" shape="2260.84,2982.24 2261.21,2982.86 2261.68,2983.21 2262.27,2983.29 2262.96,2983.10"/>
    </edge>
    <edge id=":6584935019_3" function="internal">
        <lane id=":6584935019_3_0" index="0" disallow="tram rail_urban rail rail_electric rail_fast ship" speed="3.65" length="2.08" shape="2260.84,2982.24 2260.56,2983.66 2260.15,2984.14"/>
    </edge>
    <edge id=":6584935019_5" function="internal">
        <lane id=":6584935019_5_0" index="0" disallow="tram rail_urban rail rail_electric rail_fast ship" speed="3.65" length="2.59" shape="2260.15,2984.14 2259.98,2984.33 2259.09,2984.27 2257.89,2983.47"/>
    </edge>
    <edge id=":6584935028_0" function="internal">
        <lane id=":6584935028_0_0" index="0" disallow="tram rail_urban rail rail_electric rail_fast ship" speed="13.89" length="0.48" shape="2250.75,2843.40 2250.69,2843.27 2250.65,2843.17 2250.62,2843.08 2250.58,2842.94"/>
    </edge>
    <edge id=":6584935028_1" function="internal">
        <lane id=":6584935028_1_0" index="0" disallow="tram rail_urban rail rail_electric rail_fast ship" speed="3.65" length="2.34" shape="2250.75,2843.40 2251.00,2841.98 2251.58,2841.29"/>
    </edge>
    <edge id=":6584935028_4" function="internal">
        <lane id=":6584935028_4_0" index="0" disallow="tram rail_urban rail rail_electric rail_fast ship" speed="3.65" length="2.34" shape="2251.58,2841.29 2252.47,2841.34 2253.68,2842.12"/>
    </edge>
    <edge id=":6584935028_2" function="internal">
        <lane id=":6584935028_2_0" index="0" disallow="tram rail_urban rail rail_electric rail_fast ship" speed="13.89" length="0.16" shape="2253.62,2841.97 2253.64,2842.01 2253.65,2842.04 2253.66,2842.07 2253.68,2842.12"/>
    </edge>
    <edge id=":6584935028_3" function="internal">
        <lane id=":6584935028_3_0" index="0" disallow="tram rail_urban rail rail_electric rail_fast ship" speed="3.65" length="2.34" shape="2253.62,2841.97 2253.23,2843.35 2252.59,2843.98"/>
    </edge>
    <edge id=":6584935028_5" function="internal">
        <lane id=":6584935028_5_0" index="0" disallow="tram rail_urban rail rail_electric rail_fast ship" speed="3.65" length="2.34" shape="2252.59,2843.98 2251.71,2843.84 2250.58,2842.94"/>
    </edge>
    <edge id=":6584935051_0" function="internal">
        <lane id=":6584935051_0_0" index="0" disallow="tram rail_urban rail rail_electric rail_fast ship" speed="13.89" length="14.90" shape="2236.83,2808.22 2235.57,2804.70 2234.48,2801.13 2233.27,2797.62 2231.66,2794.27"/>
    </edge>
    <edge id=":6584935051_1" function="internal">
        <lane id=":6584935051_1_0" index="0" disallow="tram rail_urban rail rail_electric rail_fast ship" speed="7.96" length="6.79" shape="2236.83,2808.22 2235.86,2804.40 2236.32,2801.59"/>
    </edge>
    <edge id=":6584935051_2" function="internal">
        <lane id=":6584935051_2_0" index="0" disallow="tram rail_urban rail rail_electric rail_fast ship" speed="3.65" length="2.34" shape="2236.83,2808.22 2237.11,2806.81 2237.69,2806.13"/>
    </edge>
    <edge id=":6584935051_9" function="internal">
        <lane id=":6584935051_9_0" index="0" disallow="tram rail_urban rail rail_electric rail_fast ship" speed="7.96" length="7.63" shape="2236.32,2801.59 2236.38,2801.21 2238.40,2798.67 2241.91,2796.76"/>
    </edge>
    <edge id=":6584935051_10" function="internal">
        <lane id=":6584935051_10_0" index="0" disallow="tram rail_urban rail rail_electric rail_fast ship" speed="3.65" length="2.34" shape="2237.69,2806.13 2238.59,2806.20 2239.78,2807.00"/>
    </edge>
    <edge id=":6584935051_3" function="internal">
        <lane id=":6584935051_3_0" index="0" disallow="tram rail_urban rail rail_electric rail_fast ship" speed="6.46" length="9.12" shape="2243.03,2799.76 2240.80,2800.97 2239.51,2802.58 2239.18,2804.59 2239.78,2807.00"/>
    </edge>
    <edge id=":6584935051_4" function="internal">
        <lane id=":6584935051_4_0" index="0" disallow="tram rail_urban rail rail_electric rail_fast ship" speed="8.46" length="13.86" shape="2243.03,2799.76 2239.81,2800.35 2236.84,2799.63 2234.13,2797.61 2231.66,2794.27"/>
    </edge>
    <edge id=":6584935051_5" function="internal">
        <lane id=":6584935051_5_0" index="0" disallow="tram rail_urban rail rail_electric rail_fast ship" speed="3.65" length="4.67" shape="2243.03,2799.76 2241.63,2799.43 2240.97,2798.82 2241.07,2797.93 2241.91,2796.76"/>
    </edge>
    <edge id=":6584935051_6" function="internal">
        <lane id=":6584935051_6_0" index="0" disallow="tram rail_urban rail rail_electric rail_fast ship" speed="6.81" length="8.66" shape="2234.82,2793.33 2236.36,2795.41 2238.05,2796.68 2239.91,2797.13 2241.91,2796.76"/>
    </edge>
    <edge id=":6584935051_7" function="internal">
        <lane id=":6584935051_7_0" index="0" disallow="tram rail_urban rail rail_electric rail_fast ship" speed="13.89" length="14.57" shape="2234.82,2793.33 2236.39,2796.63 2237.53,2800.05 2238.56,2803.52 2239.78,2807.00"/>
    </edge>
    <edge id=":6584935051_8" function="internal">
        <lane id=":6584935051_8_0" index="0" disallow="tram rail_urban rail rail_electric rail_fast ship" speed="3.69" length="2.17" shape="2234.82,2793.33 2234.38,2794.75 2233.89,2795.21"/>
    </edge>
    <edge id=":6584935051_11" function="internal">
        <lane id=":6584935051_11_0" index="0" disallow="tram rail_urban rail rail_electric rail_fast ship" speed="3.69" length="2.65" shape="2233.89,2795.21 2233.71,2795.38 2232.81,2795.22 2231.66,2794.27"/>
    </edge>
    <edge id=":6584935052_0" function="internal">
        <lane id=":6584935052_0_0" index="0" disallow="tram rail_urban rail rail_electric rail_fast ship" speed="6.07" length="8.01" shape="2283.18,2779.45 2283.75,2781.59 2283.49,2783.37 2282.38,2784.78 2280.44,2785.84"/>
    </edge>
    <edge id=":6584935052_1" function="internal">
        <lane id=":6584935052_1_0" index="0" disallow="tram rail_urban rail rail_electric rail_fast ship" speed="3.65" length="4.67" shape="2283.18,2779.45 2282.92,2780.87 2282.34,2781.55 2281.45,2781.50 2280.24,2780.71"/>
    </edge>
    <edge id=":6584935052_2" function="internal">
        <lane id=":6584935052_2_0" index="0" disallow="tram rail_urban rail rail_electric rail_fast ship" speed="3.90" length="2.67" shape="2279.33,2782.84 2279.97,2782.49 2280.34,2782.02 2280.43,2781.42 2280.24,2780.71"/>
    </edge>
    <edge id=":6584935052_3" function="internal">
        <lane id=":6584935052_3_0" index="0" disallow="tram rail_urban rail rail_electric rail_fast ship" speed="3.65" length="4.67" shape="2279.33,2782.84 2280.73,2783.17 2281.38,2783.78 2281.29,2784.67 2280.44,2785.84"/>
    </edge>

    <edge id="-210617558#1" from="5130233478" to="1553949743" priority="10" type="highway.tertiary" shape="2127.75,2974.20 2110.79,2930.70 2094.78,2877.54 2077.30,2805.85 2063.08,2750.35 2046.99,2709.14">
        <lane id="-210617558#1_0" index="0" disallow="tram rail_urban rail rail_electric rail_fast ship" speed="22.22" length="271.34" shape="2125.13,2971.87 2109.28,2931.22 2093.24,2877.96 2075.75,2806.24 2061.55,2750.84 2046.61,2712.58"/>
    </edge>
    <edge id="-451798708#2" from="4486134560" to="6584935052" priority="1" type="highway.track" shape="2210.66,2688.39 2220.14,2687.13 2226.65,2685.55 2240.37,2694.16 2246.11,2696.78 2283.03,2783.17">
        <lane id="-451798708#2_0" index="0" disallow="tram rail_urban rail rail_electric rail_fast ship" speed="5.56" length="124.61" shape="2217.35,2685.89 2219.85,2685.56 2226.93,2683.84 2241.13,2692.75 2247.34,2695.58 2283.18,2779.45"/>
    </edge>
    <edge id="-527775824" from="4486134560" to="1553949743" priority="4" type="highway.unclassified" shape="2210.66,2688.39 2193.58,2682.76 2162.32,2670.02 2143.41,2669.07 2112.94,2680.09 2046.99,2709.14">
        <lane id="-527775824_0" index="0" disallow="tram rail_urban rail rail_electric rail_fast ship" speed="13.89" length="164.94" shape="2204.51,2688.05 2193.03,2684.26 2161.97,2671.60 2143.65,2670.68 2113.54,2681.58 2050.44,2709.37"/>
    </edge>
    <edge id="-527775826#0" from="6584935018" to="5130233478" priority="4" type="highway.unclassified" shape="2242.38,2941.83 2223.56,2946.99 2203.17,2949.84 2180.70,2955.04 2127.75,2974.20">
        <lane id="-527775826#0_0" index="0" disallow="tram rail_urban rail rail_electric rail_fast ship" speed="13.89" length="109.40" shape="2236.22,2945.18 2223.88,2948.56 2203.46,2951.41 2181.15,2956.58 2131.23,2974.64"/>
    </edge>
    <edge id="-527775826#1" from="5130333344" to="6584935018" priority="4" type="highway.unclassified" shape="2289.81,2927.58 2272.56,2933.01 2267.92,2934.26 2242.38,2941.83">
        <lane id="-527775826#1_0" index="0" disallow="tram rail_urban rail rail_electric rail_fast ship" speed="13.89" length="34.41" shape="2283.05,2931.39 2273.01,2934.55 2268.36,2935.80 2250.08,2941.22"/>
    </edge>
    <edge id="-527775828#1" from="5130333344" to="5130333345" priority="4" type="highway.unclassified">
        <lane id="-527775828#1_0" index="0" disallow="tram rail_urban rail rail_electric rail_fast ship" speed="13.89" length="31.82" shape="2294.28,2932.83 2308.75,2961.17"/>
    </edge>
    <edge id="-527775828#2" from="6584935028" to="5130333344" priority="4" type="highway.unclassified" shape="2252.15,2842.61 2266.38,2875.26 2289.81,2927.58">
        <lane id="-527775828#2_0" index="0" disallow="tram rail_urban rail rail_electric rail_fast ship" speed="13.89" length="85.17" shape="2253.68,2842.12 2267.84,2874.61 2288.17,2919.99"/>
    </edge>
    <edge id="-527775828#3" from="6584935051" to="6584935028" priority="4" type="highway.unclassified" shape="2235.51,2800.85 2249.99,2835.87 2252.15,2842.61">
        <lane id="-527775828#3_0" index="0" disallow="tram rail_urban rail rail_electric rail_fast ship" speed="13.89" length="37.63" shape="2239.78,2807.00 2251.49,2835.32 2253.62,2841.97"/>
    </edge>
    <edge id="-527775828#4" from="4486134560" to="6584935051" priority="4" type="highway.unclassified" shape="2210.66,2688.39 2211.22,2694.05 2214.47,2703.97 2214.43,2713.66 2201.62,2742.07 2210.14,2754.43 2233.61,2794.43 2235.51,2800.85">