<?xml version="1.0" encoding="UTF-8"?>

<!-- generated on Thu 12 Mar 2020 06:42:48 PM WITA by Eclipse SUMO netedit Version 1.4.0
<configuration xmlns:xsi="http://www.w3.org/2001/XMLSchema-instance" xsi:noNamespaceSchemaLocation="http://sumo.dlr.de/xsd/netconvertConfiguration.xsd">

    <input>
        <sumo-net-file value="sebudi_edit2.net.xml"/>
    </input>

    <output>
        <output-file value="sebudi_edit2.net.xml"/>
        <plain-output-prefix value="/home/adisaputra/NS/voip/Project-Jitter-Buffer-master/osmfiles/netfiles/sebudi_edit2"/>
    </output>

    <processing>
        <geometry.min-radius.fix.railways value="false"/>
        <geometry.max-grade.fix value="false"/>
        <offset.disable-normalization value="true"/>
        <lefthand value="false"/>
    </processing>

    <junctions>
        <no-turnarounds value="true"/>
        <junctions.corner-detail value="5"/>
        <junctions.limit-turn-speed value="5.5"/>
        <rectangular-lane-cut value="false"/>
    </junctions>

    <pedestrian>
        <walkingareas value="false"/>
    </pedestrian>

    <report>
        <aggregate-warnings value="5"/>
    </report>

</configuration>
-->

<nodes version="1.3" xmlns:xsi="http://www.w3.org/2001/XMLSchema-instance" xsi:noNamespaceSchemaLocation="http://sumo.dlr.de/xsd/nodes_file.xsd">
    <location netOffset="-329165.89,930795.17" convBoundary="18.57,0.00,3234.80,4455.53" origBoundary="115.448347,-8.417527,115.477864,-8.377353" projParameter="+proj=utm +zone=50 +ellps=WGS84 +datum=WGS84 +units=m +no_defs"/>

    <node id="1553943673" x="18.57" y="0.00" type="dead_end"/>
    <node id="1553949743" x="2046.99" y="2709.14" type="priority"/>
    <node id="1553949747" x="3234.80" y="4455.53" type="dead_end"/>
    <node id="2471117984" x="2364.64" y="2129.97" type="dead_end"/>
    <node id="4486134560" x="2210.66" y="2688.39" type="priority"/>
    <node id="5130233478" x="2127.75" y="2974.20" type="priority"/>
    <node id="5130333344" x="2289.81" y="2927.58" type="priority"/>
    <node id="5130333345" x="2308.87" y="2964.93" type="priority"/>
    <node id="6584935018" x="2242.38" y="2941.83" type="priority"/>
    <node id="6584935019" x="2260.61" y="2985.86" type="priority"/>
    <node id="6584935028" x="2252.15" y="2842.61" type="priority"/>
    <node id="6584935051" x="2235.51" y="2800.85" type="priority"/>
    <node id="6584935052" x="2283.03" y="2783.17" type="priority"/>
    <node id="gneJ15" x="2111.14" y="2930.85" type="dead_end"/>
    <node id="gneJ18" x="2169.90" y="2830.29" type="priority"/>
    <node id="gneJ19" x="2143.42" y="2791.67" type="priority"/>
    <node id="gneJ20" x="2104.53" y="2759.95" type="priority"/>
    <node id="gneJ21" x="2330.93" y="2885.51" type="priority"/>
    <node id="gneJ22" x="2315.29" y="2851.79" type="priority"/>
</nodes>
