<?xml version="1.0" encoding="UTF-8"?>

<!-- generated on Tue 28 Apr 2020 08:48:19 PM WITA by Eclipse SUMO netedit Version 1.4.0
<configuration xmlns:xsi="http://www.w3.org/2001/XMLSchema-instance" xsi:noNamespaceSchemaLocation="http://sumo.dlr.de/xsd/netconvertConfiguration.xsd">

    <input>
        <sumo-net-file value="shifted.net.xml"/>
    </input>

    <output>
        <output-file value="shifted.net.xml"/>
    </output>

    <processing>
        <geometry.min-radius.fix.railways value="false"/>
        <geometry.max-grade.fix value="false"/>
        <offset.disable-normalization value="true"/>
        <lefthand value="false"/>
    </processing>

    <junctions>
        <no-turnarounds value="true"/>
        <junctions.corner-detail value="5"/>
        <junctions.limit-turn-speed value="5.5"/>
        <rectangular-lane-cut value="false"/>
    </junctions>

    <pedestrian>
        <walkingareas value="false"/>
    </pedestrian>

    <report>
        <aggregate-warnings value="5"/>
    </report>

</configuration>
-->

<net version="1.3" junctionCornerDetail="5" limitTurnSpeed="5.50" xmlns:xsi="http://www.w3.org/2001/XMLSchema-instance" xsi:noNamespaceSchemaLocation="http://sumo.dlr.de/xsd/net_file.xsd">

    <location netOffset="10.00,10.00" convBoundary="331222.88,-928224.30,331817.89,-927444.11" origBoundary="115.462269,-8.395525,115.501639,-8.341677" projParameter="+proj=utm +zone=50 +ellps=WGS84 +datum=WGS84 +units=m +no_defs"/>

    <type id="highway.bridleway" priority="1" numLanes="1" speed="2.78" allow="pedestrian" oneway="1" width="2.00"/>
    <type id="highway.bus_guideway" priority="1" numLanes="1" speed="27.78" allow="bus" oneway="1"/>
    <type id="highway.cycleway" priority="1" numLanes="1" speed="8.33" allow="bicycle" oneway="0" width="1.00"/>
    <type id="highway.footway" priority="1" numLanes="1" speed="2.78" allow="pedestrian" oneway="1" width="2.00"/>
    <type id="highway.ford" priority="1" numLanes="1" speed="2.78" allow="army" oneway="0"/>
    <type id="highway.living_street" priority="2" numLanes="1" speed="2.78" disallow="tram rail_urban rail rail_electric rail_fast ship" oneway="0"/>
    <type id="highway.motorway" priority="14" numLanes="2" speed="39.44" allow="private emergency authority army vip passenger hov taxi bus coach delivery truck trailer motorcycle evehicle custom1 custom2" oneway="1"/>
    <type id="highway.motorway_link" priority="9" numLanes="1" speed="22.22" allow="private emergency authority army vip passenger hov taxi bus coach delivery truck trailer motorcycle evehicle custom1 custom2" oneway="1"/>
    <type id="highway.path" priority="1" numLanes="1" speed="2.78" allow="pedestrian bicycle" oneway="1" width="2.00"/>
    <type id="highway.pedestrian" priority="1" numLanes="1" speed="2.78" allow="pedestrian" oneway="1" width="2.00"/>
    <type id="highway.primary" priority="12" numLanes="2" speed="27.78" disallow="tram rail_urban rail rail_electric rail_fast ship" oneway="0"/>
    <type id="highway.primary_link" priority="7" numLanes="1" speed="22.22" disallow="tram rail_urban rail rail_electric rail_fast ship" oneway="0"/>
    <type id="highway.raceway" priority="15" numLanes="2" speed="83.33" allow="vip" oneway="0"/>
    <type id="highway.residential" priority="3" numLanes="1" speed="13.89" disallow="tram rail_urban rail rail_electric rail_fast ship" oneway="0"/>
    <type id="highway.secondary" priority="11" numLanes="1" speed="27.78" disallow="tram rail_urban rail rail_electric rail_fast ship" oneway="0"/>
    <type id="highway.secondary_link" priority="6" numLanes="1" speed="22.22" disallow="tram rail_urban rail rail_electric rail_fast ship" oneway="0"/>
    <type id="highway.service" priority="1" numLanes="1" speed="5.56" allow="pedestrian delivery bicycle" oneway="0"/>
    <type id="highway.stairs" priority="1" numLanes="1" speed="1.39" allow="pedestrian" oneway="1" width="2.00"/>
    <type id="highway.step" priority="1" numLanes="1" speed="1.39" allow="pedestrian" oneway="1" width="2.00"/>
    <type id="highway.steps" priority="1" numLanes="1" speed="1.39" allow="pedestrian" oneway="1" width="2.00"/>
    <type id="highway.tertiary" priority="10" numLanes="1" speed="22.22" disallow="tram rail_urban rail rail_electric rail_fast ship" oneway="0"/>
    <type id="highway.tertiary_link" priority="5" numLanes="1" speed="22.22" disallow="tram rail_urban rail rail_electric rail_fast ship" oneway="0"/>
    <type id="highway.track" priority="1" numLanes="1" speed="5.56" disallow="tram rail_urban rail rail_electric rail_fast ship" oneway="0"/>
    <type id="highway.trunk" priority="13" numLanes="2" speed="27.78" disallow="pedestrian bicycle tram rail_urban rail rail_electric rail_fast ship" oneway="0"/>
    <type id="highway.trunk_link" priority="8" numLanes="1" speed="22.22" disallow="pedestrian bicycle tram rail_urban rail rail_electric rail_fast ship" oneway="0"/>
    <type id="highway.unclassified" priority="4" numLanes="1" speed="13.89" disallow="tram rail_urban rail rail_electric rail_fast ship" oneway="0"/>
    <type id="highway.unsurfaced" priority="1" numLanes="1" speed="8.33" disallow="tram rail_urban rail rail_electric rail_fast ship" oneway="0"/>
    <type id="railway.highspeed" priority="21" numLanes="1" speed="69.44" allow="rail_fast" oneway="1"/>
    <type id="railway.light_rail" priority="19" numLanes="1" speed="27.78" allow="rail_urban" oneway="1"/>
    <type id="railway.preserved" priority="16" numLanes="1" speed="27.78" allow="rail" oneway="1"/>
    <type id="railway.rail" priority="20" numLanes="1" speed="44.44" allow="rail" oneway="1"/>
    <type id="railway.subway" priority="18" numLanes="1" speed="27.78" allow="rail_urban" oneway="1"/>
    <type id="railway.tram" priority="17" numLanes="1" speed="13.89" allow="tram" oneway="1"/>

    <edge id=":-102127_0" function="internal">
        <lane id=":-102127_0_0" index="0" disallow="tram rail_urban rail rail_electric rail_fast ship" speed="5.95" length="9.09" shape="331618.80,-927768.84 331617.37,-927771.03 331615.69,-927771.99 331613.78,-927771.74 331611.62,-927770.26"/>
    </edge>
    <edge id=":-102127_1" function="internal">
        <lane id=":-102127_1_0" index="0" disallow="tram rail_urban rail rail_electric rail_fast ship" speed="13.89" length="18.42" shape="331618.80,-927768.84 331617.32,-927772.85 331616.13,-927777.63 331615.32,-927782.50 331615.01,-927786.78"/>
    </edge>
    <edge id=":-102127_2" function="internal">
        <lane id=":-102127_2_0" index="0" disallow="tram rail_urban rail rail_electric rail_fast ship" speed="9.04" length="16.70" shape="331618.80,-927768.84 331618.13,-927772.62 331619.00,-927776.83 331621.10,-927780.74 331624.09,-927783.59"/>
    </edge>
    <edge id=":-102127_3" function="internal">
        <lane id=":-102127_3_0" index="0" disallow="tram rail_urban rail rail_electric rail_fast ship" speed="3.65" length="4.67" shape="331618.80,-927768.84 331619.02,-927770.27 331619.57,-927770.97 331620.46,-927770.95 331621.70,-927770.20"/>
    </edge>
    <edge id=":-102127_4" function="internal">
        <lane id=":-102127_4_0" index="0" disallow="tram rail_urban rail rail_electric rail_fast ship" speed="7.94" length="12.69" shape="331625.78,-927780.87 331622.89,-927778.56 331621.25,-927776.01 331620.85,-927773.22 331621.70,-927770.20"/>
    </edge>
    <edge id=":-102127_5" function="internal">
        <lane id=":-102127_5_0" index="0" disallow="tram rail_urban rail rail_electric rail_fast ship" speed="13.89" length="17.71" shape="331625.78,-927780.87 331622.30,-927778.57 331618.50,-927775.84 331614.79,-927772.97 331611.62,-927770.26"/>
    </edge>
    <edge id=":-102127_6" function="internal">
        <lane id=":-102127_6_0" index="0" disallow="tram rail_urban rail rail_electric rail_fast ship" speed="7.39" length="6.30" shape="331625.78,-927780.87 331621.11,-927778.74 331619.95,-927778.84"/>
    </edge>
    <edge id=":-102127_7" function="internal">
        <lane id=":-102127_7_0" index="0" disallow="tram rail_urban rail rail_electric rail_fast ship" speed="3.65" length="2.34" shape="331625.78,-927780.87 331624.34,-927780.92 331623.58,-927781.38"/>
    </edge>
    <edge id=":-102127_16" function="internal">
        <lane id=":-102127_16_0" index="0" disallow="tram rail_urban rail rail_electric rail_fast ship" speed="7.39" length="10.69" shape="331619.95,-927778.84 331617.76,-927779.02 331615.73,-927781.69 331615.01,-927786.78"/>
    </edge>
    <edge id=":-102127_17" function="internal">
        <lane id=":-102127_17_0" index="0" disallow="tram rail_urban rail rail_electric rail_fast ship" speed="3.65" length="2.34" shape="331623.58,-927781.38 331623.49,-927782.27 331624.09,-927783.59"/>
    </edge>
    <edge id=":-102127_8" function="internal">
        <lane id=":-102127_8_0" index="0" disallow="tram rail_urban rail rail_electric rail_fast ship" speed="5.64" length="9.27" shape="331618.21,-927786.81 331618.60,-927784.03 331619.71,-927782.57 331621.54,-927782.42 331624.09,-927783.59"/>
    </edge>
    <edge id=":-102127_9" function="internal">
        <lane id=":-102127_9_0" index="0" disallow="tram rail_urban rail rail_electric rail_fast ship" speed="13.89" length="17.07" shape="331618.21,-927786.81 331618.47,-927782.74 331619.17,-927778.33 331620.26,-927774.00 331621.70,-927770.20"/>
    </edge>
    <edge id=":-102127_10" function="internal">
        <lane id=":-102127_10_0" index="0" disallow="tram rail_urban rail rail_electric rail_fast ship" speed="13.31" length="18.14" shape="331618.21,-927786.81 331617.67,-927782.45 331616.19,-927777.73 331614.07,-927773.40 331611.62,-927770.26"/>
    </edge>
    <edge id=":-102127_11" function="internal">
        <lane id=":-102127_11_0" index="0" disallow="tram rail_urban rail rail_electric rail_fast ship" speed="3.65" length="4.67" shape="331618.21,-927786.81 331617.42,-927785.60 331616.62,-927785.19 331615.82,-927785.58 331615.01,-927786.78"/>
    </edge>
    <edge id=":-102127_12" function="internal">
        <lane id=":-102127_12_0" index="0" disallow="tram rail_urban rail rail_electric rail_fast ship" speed="12.39" length="15.66" shape="331609.46,-927772.62 331611.92,-927775.44 331613.66,-927778.74 331614.69,-927782.52 331615.01,-927786.78"/>
    </edge>
    <edge id=":-102127_13" function="internal">
        <lane id=":-102127_13_0" index="0" disallow="tram rail_urban rail rail_electric rail_fast ship" speed="13.89" length="18.30" shape="331609.46,-927772.62 331612.71,-927775.39 331616.57,-927778.38 331620.53,-927781.23 331624.09,-927783.59"/>
    </edge>
    <edge id=":-102127_14" function="internal">
        <lane id=":-102127_14_0" index="0" disallow="tram rail_urban rail rail_electric rail_fast ship" speed="7.57" length="6.69" shape="331609.46,-927772.62 331613.14,-927775.14 331615.36,-927775.43"/>
    </edge>
    <edge id=":-102127_15" function="internal">
        <lane id=":-102127_15_0" index="0" disallow="tram rail_urban rail rail_electric rail_fast ship" speed="3.65" length="2.34" shape="331609.46,-927772.62 331610.89,-927772.84 331611.72,-927772.52"/>
    </edge>
    <edge id=":-102127_18" function="internal">
        <lane id=":-102127_18_0" index="0" disallow="tram rail_urban rail rail_electric rail_fast ship" speed="7.57" length="8.80" shape="331615.36,-927775.43 331616.40,-927775.57 331619.26,-927773.93 331621.70,-927770.20"/>
    </edge>
    <edge id=":-102127_19" function="internal">
        <lane id=":-102127_19_0" index="0" disallow="tram rail_urban rail rail_electric rail_fast ship" speed="3.65" length="2.34" shape="331611.72,-927772.52 331611.97,-927771.66 331611.62,-927770.26"/>
    </edge>
    <edge id=":-102130_0" function="internal">
        <lane id=":-102130_0_0" index="0" disallow="tram rail_urban rail rail_electric rail_fast ship" speed="8.43" length="9.73" shape="331658.28,-927692.34 331656.21,-927693.32 331653.98,-927693.62 331651.58,-927693.25 331649.02,-927692.20"/>
    </edge>
    <edge id=":-102130_1" function="internal">
        <lane id=":-102130_1_0" index="0" disallow="tram rail_urban rail rail_electric rail_fast ship" speed="13.89" length="13.20" shape="331658.28,-927692.34 331655.53,-927694.43 331653.38,-927696.69 331651.61,-927699.29 331650.01,-927702.38"/>
    </edge>
    <edge id=":-102130_2" function="internal">
        <lane id=":-102130_2_0" index="0" disallow="tram rail_urban rail rail_electric rail_fast ship" speed="3.65" length="2.34" shape="331658.28,-927692.34 331657.72,-927693.67 331657.83,-927694.56"/>
    </edge>
    <edge id=":-102130_9" function="internal">
        <lane id=":-102130_9_0" index="0" disallow="tram rail_urban rail rail_electric rail_fast ship" speed="3.65" length="2.34" shape="331657.83,-927694.56 331658.60,-927695.00 331660.04,-927695.01"/>
    </edge>
    <edge id=":-102130_3" function="internal">
        <lane id=":-102130_3_0" index="0" disallow="tram rail_urban rail rail_electric rail_fast ship" speed="13.89" length="11.48" shape="331652.91,-927703.74 331654.33,-927700.85 331655.71,-927698.71 331657.47,-927696.90 331660.04,-927695.01"/>
    </edge>
    <edge id=":-102130_4" function="internal">
        <lane id=":-102130_4_0" index="0" disallow="tram rail_urban rail rail_electric rail_fast ship" speed="8.01" length="5.12" shape="331652.91,-927703.74 331654.01,-927700.16 331653.89,-927698.79"/>
    </edge>
    <edge id=":-102130_5" function="internal">
        <lane id=":-102130_5_0" index="0" disallow="tram rail_urban rail rail_electric rail_fast ship" speed="3.65" length="2.34" shape="331652.91,-927703.74 331652.69,-927702.31 331652.14,-927701.61"/>
    </edge>
    <edge id=":-102130_10" function="internal">
        <lane id=":-102130_10_0" index="0" disallow="tram rail_urban rail rail_electric rail_fast ship" speed="8.01" length="8.63" shape="331653.89,-927698.79 331653.73,-927697.04 331652.07,-927694.39 331649.02,-927692.20"/>
    </edge>
    <edge id=":-102130_11" function="internal">
        <lane id=":-102130_11_0" index="0" disallow="tram rail_urban rail rail_electric rail_fast ship" speed="3.65" length="2.34" shape="331652.14,-927701.61 331651.25,-927701.63 331650.01,-927702.38"/>
    </edge>
    <edge id=":-102130_6" function="internal">
        <lane id=":-102130_6_0" index="0" disallow="tram rail_urban rail rail_electric rail_fast ship" speed="6.51" length="8.75" shape="331647.54,-927695.04 331649.48,-927696.43 331650.53,-927698.12 331650.71,-927700.10 331650.01,-927702.38"/>
    </edge>
    <edge id=":-102130_7" function="internal">
        <lane id=":-102130_7_0" index="0" disallow="tram rail_urban rail rail_electric rail_fast ship" speed="9.72" length="13.15" shape="331647.54,-927695.04 331650.93,-927696.40 331654.14,-927696.85 331657.18,-927696.39 331660.04,-927695.01"/>
    </edge>
    <edge id=":-102130_8" function="internal">
        <lane id=":-102130_8_0" index="0" disallow="tram rail_urban rail rail_electric rail_fast ship" speed="3.65" length="4.67" shape="331647.54,-927695.04 331648.97,-927694.89 331649.70,-927694.36 331649.72,-927693.47 331649.02,-927692.20"/>
    </edge>
    <edge id=":-102138_0" function="internal">
        <lane id=":-102138_0_0" index="0" disallow="tram rail_urban rail rail_electric rail_fast ship" speed="6.77" length="9.37" shape="331639.15,-928135.81 331638.67,-928138.22 331637.49,-928139.95 331635.59,-928141.02 331632.99,-928141.41"/>
    </edge>
    <edge id=":-102138_1" function="internal">
        <lane id=":-102138_1_0" index="0" disallow="tram rail_urban rail rail_electric rail_fast ship" speed="13.89" length="14.41" shape="331639.15,-928135.81 331638.49,-928150.20"/>
    </edge>
    <edge id=":-102138_2" function="internal">
        <lane id=":-102138_2_0" index="0" disallow="tram rail_urban rail rail_electric rail_fast ship" speed="3.65" length="2.34" shape="331639.15,-928135.81 331639.90,-928137.04 331640.68,-928137.48"/>
    </edge>
    <edge id=":-102138_9" function="internal">
        <lane id=":-102138_9_0" index="0" disallow="tram rail_urban rail rail_electric rail_fast ship" speed="3.65" length="2.34" shape="331640.68,-928137.48 331641.50,-928137.11 331642.35,-928135.95"/>
    </edge>
    <edge id=":-102138_3" function="internal">
        <lane id=":-102138_3_0" index="0" disallow="tram rail_urban rail rail_electric rail_fast ship" speed="13.89" length="14.41" shape="331641.69,-928150.35 331642.35,-928135.95"/>
    </edge>
    <edge id=":-102138_4" function="internal">
        <lane id=":-102138_4_0" index="0" disallow="tram rail_urban rail rail_electric rail_fast ship" speed="7.89" length="5.94" shape="331641.69,-928150.35 331641.30,-928146.37 331640.35,-928144.67"/>
    </edge>
    <edge id=":-102138_5" function="internal">
        <lane id=":-102138_5_0" index="0" disallow="tram rail_urban rail rail_electric rail_fast ship" speed="3.65" length="2.34" shape="331641.69,-928150.35 331640.94,-928149.12 331640.16,-928148.68"/>
    </edge>
    <edge id=":-102138_10" function="internal">
        <lane id=":-102138_10_0" index="0" disallow="tram rail_urban rail rail_electric rail_fast ship" speed="7.89" length="8.50" shape="331640.35,-928144.67 331639.72,-928143.56 331636.95,-928141.90 331632.99,-928141.41"/>
    </edge>
    <edge id=":-102138_11" function="internal">
        <lane id=":-102138_11_0" index="0" disallow="tram rail_urban rail rail_electric rail_fast ship" speed="3.65" length="2.34" shape="331640.16,-928148.68 331639.34,-928149.04 331638.49,-928150.20"/>
    </edge>
    <edge id=":-102138_6" function="internal">
        <lane id=":-102138_6_0" index="0" disallow="tram rail_urban rail rail_electric rail_fast ship" speed="6.37" length="9.04" shape="331633.05,-928144.61 331635.53,-928144.92 331637.26,-928145.95 331638.25,-928147.72 331638.49,-928150.20"/>
    </edge>
    <edge id=":-102138_7" function="internal">
        <lane id=":-102138_7_0" index="0" disallow="tram rail_urban rail rail_electric rail_fast ship" speed="8.22" length="14.29" shape="331633.05,-928144.61 331636.97,-928144.01 331639.83,-928142.36 331641.62,-928139.68 331642.35,-928135.95"/>
    </edge>
    <edge id=":-102138_8" function="internal">
        <lane id=":-102138_8_0" index="0" disallow="tram rail_urban rail rail_electric rail_fast ship" speed="3.65" length="4.67" shape="331633.05,-928144.61 331634.23,-928143.79 331634.62,-928142.98 331634.20,-928142.19 331632.99,-928141.41"/>
    </edge>
    <edge id=":-102139_0" function="internal">
        <lane id=":-102139_0_0" index="0" disallow="tram rail_urban rail rail_electric rail_fast ship" speed="6.57" length="7.54" shape="331458.75,-927669.02 331457.33,-927670.43 331455.74,-927671.19 331453.98,-927671.29 331452.05,-927670.73"/>
    </edge>
    <edge id=":-102139_1" function="internal">
        <lane id=":-102139_1_0" index="0" disallow="tram rail_urban rail rail_electric rail_fast ship" speed="8.17" length="11.81" shape="331458.75,-927669.02 331457.18,-927671.74 331456.64,-927674.47 331457.15,-927677.18 331458.69,-927679.90"/>
    </edge>
    <edge id=":-102139_2" function="internal">
        <lane id=":-102139_2_0" index="0" disallow="tram rail_urban rail rail_electric rail_fast ship" speed="3.65" length="4.67" shape="331458.75,-927669.02 331458.66,-927670.46 331459.05,-927671.26 331459.93,-927671.43 331461.29,-927670.97"/>
    </edge>
    <edge id=":-102139_3" function="internal">
        <lane id=":-102139_3_0" index="0" disallow="tram rail_urban rail rail_electric rail_fast ship" speed="6.67" length="7.59" shape="331461.24,-927677.96 331460.25,-927676.22 331459.93,-927674.47 331460.28,-927672.72 331461.29,-927670.97"/>
    </edge>
    <edge id=":-102139_4" function="internal">
        <lane id=":-102139_4_0" index="0" disallow="tram rail_urban rail rail_electric rail_fast ship" speed="13.89" length="11.86" shape="331461.24,-927677.96 331459.17,-927675.43 331457.22,-927673.61 331454.99,-927672.15 331452.05,-927670.73"/>
    </edge>
    <edge id=":-102139_5" function="internal">
        <lane id=":-102139_5_0" index="0" disallow="tram rail_urban rail rail_electric rail_fast ship" speed="3.65" length="2.34" shape="331461.24,-927677.96 331459.87,-927677.49 331458.99,-927677.65"/>
    </edge>
    <edge id=":-102139_9" function="internal">
        <lane id=":-102139_9_0" index="0" disallow="tram rail_urban rail rail_electric rail_fast ship" speed="3.65" length="2.34" shape="331458.99,-927677.65 331458.60,-927678.46 331458.69,-927679.90"/>
    </edge>
    <edge id=":-102139_6" function="internal">
        <lane id=":-102139_6_0" index="0" disallow="tram rail_urban rail rail_electric rail_fast ship" speed="13.89" length="10.28" shape="331450.76,-927673.66 331453.50,-927674.93 331455.30,-927676.04 331456.82,-927677.53 331458.69,-927679.90"/>
    </edge>
    <edge id=":-102139_7" function="internal">
        <lane id=":-102139_7_0" index="0" disallow="tram rail_urban rail rail_electric rail_fast ship" speed="8.08" length="4.93" shape="331450.76,-927673.66 331453.79,-927674.54 331455.56,-927674.44"/>
    </edge>
    <edge id=":-102139_8" function="internal">
        <lane id=":-102139_8_0" index="0" disallow="tram rail_urban rail rail_electric rail_fast ship" speed="3.65" length="2.34" shape="331450.76,-927673.66 331452.18,-927673.41 331452.87,-927672.84"/>
    </edge>
    <edge id=":-102139_10" function="internal">
        <lane id=":-102139_10_0" index="0" disallow="tram rail_urban rail rail_electric rail_fast ship" speed="8.08" length="6.92" shape="331455.56,-927674.44 331456.55,-927674.38 331459.06,-927673.19 331461.29,-927670.97"/>
    </edge>
    <edge id=":-102139_11" function="internal">
        <lane id=":-102139_11_0" index="0" disallow="tram rail_urban rail rail_electric rail_fast ship" speed="3.65" length="2.34" shape="331452.87,-927672.84 331452.83,-927671.95 331452.05,-927670.73"/>
    </edge>
    <edge id=":-102140_0" function="internal">
        <lane id=":-102140_0_0" index="0" disallow="tram rail_urban rail rail_electric rail_fast ship" speed="12.15" length="9.64" shape="331476.11,-927692.89 331473.42,-927692.00 331471.67,-927691.08 331470.23,-927689.70 331468.47,-927687.47"/>
    </edge>
    <edge id=":-102140_1" function="internal">
        <lane id=":-102140_1_0" index="0" disallow="tram rail_urban rail rail_electric rail_fast ship" speed="8.57" length="4.69" shape="331476.11,-927692.89 331473.19,-927692.42 331471.48,-927692.69"/>
    </edge>
    <edge id=":-102140_2" function="internal">
        <lane id=":-102140_2_0" index="0" disallow="tram rail_urban rail rail_electric rail_fast ship" speed="3.65" length="2.34" shape="331476.11,-927692.89 331474.73,-927693.31 331474.12,-927693.96"/>
    </edge>
    <edge id=":-102140_9" function="internal">
        <lane id=":-102140_9_0" index="0" disallow="tram rail_urban rail rail_electric rail_fast ship" speed="8.57" length="6.87" shape="331471.48,-927692.69 331470.50,-927692.84 331468.05,-927694.13 331465.83,-927696.31"/>
    </edge>
    <edge id=":-102140_10" function="internal">
        <lane id=":-102140_10_0" index="0" disallow="tram rail_urban rail rail_electric rail_fast ship" speed="3.65" length="2.34" shape="331474.12,-927693.96 331474.28,-927694.85 331475.20,-927695.95"/>
    </edge>
    <edge id=":-102140_3" function="internal">
        <lane id=":-102140_3_0" index="0" disallow="tram rail_urban rail rail_electric rail_fast ship" speed="7.12" length="7.75" shape="331468.33,-927698.31 331469.82,-927696.83 331471.47,-927695.95 331473.26,-927695.65 331475.20,-927695.95"/>
    </edge>
    <edge id=":-102140_4" function="internal">
        <lane id=":-102140_4_0" index="0" disallow="tram rail_urban rail rail_electric rail_fast ship" speed="8.08" length="11.80" shape="331468.33,-927698.31 331469.95,-927695.62 331470.51,-927692.92 331470.02,-927690.20 331468.47,-927687.47"/>
    </edge>
    <edge id=":-102140_5" function="internal">
        <lane id=":-102140_5_0" index="0" disallow="tram rail_urban rail rail_electric rail_fast ship" speed="3.65" length="4.67" shape="331468.33,-927698.31 331468.45,-927696.87 331468.08,-927696.06 331467.21,-927695.87 331465.83,-927696.31"/>
    </edge>
    <edge id=":-102140_6" function="internal">
        <lane id=":-102140_6_0" index="0" disallow="tram rail_urban rail rail_electric rail_fast ship" speed="6.57" length="7.51" shape="331465.92,-927689.41 331466.91,-927691.15 331467.22,-927692.88 331466.86,-927694.59 331465.83,-927696.31"/>
    </edge>
    <edge id=":-102140_7" function="internal">
        <lane id=":-102140_7_0" index="0" disallow="tram rail_urban rail rail_electric rail_fast ship" speed="13.30" length="11.63" shape="331465.92,-927689.41 331467.97,-927691.91 331469.90,-927693.64 331472.15,-927694.89 331475.20,-927695.95"/>
    </edge>
    <edge id=":-102140_8" function="internal">
        <lane id=":-102140_8_0" index="0" disallow="tram rail_urban rail rail_electric rail_fast ship" speed="3.65" length="2.34" shape="331465.92,-927689.41 331467.29,-927689.88 331468.16,-927689.72"/>
    </edge>
    <edge id=":-102140_11" function="internal">
        <lane id=":-102140_11_0" index="0" disallow="tram rail_urban rail rail_electric rail_fast ship" speed="3.65" length="2.34" shape="331468.16,-927689.72 331468.56,-927688.91 331468.47,-927687.47"/>
    </edge>
    <edge id=":-102145_0" function="internal">
        <lane id=":-102145_0_0" index="0" disallow="tram rail_urban rail rail_electric rail_fast ship" speed="13.89" length="12.21" shape="331740.09,-927634.75 331738.38,-927637.60 331736.71,-927639.85 331734.73,-927641.79 331732.06,-927643.75"/>
    </edge>
    <edge id=":-102145_1" function="internal">
        <lane id=":-102145_1_0" index="0" disallow="tram rail_urban rail rail_electric rail_fast ship" speed="8.00" length="5.25" shape="331740.09,-927634.75 331738.66,-927638.37 331738.69,-927639.73"/>
    </edge>
    <edge id=":-102145_2" function="internal">
        <lane id=":-102145_2_0" index="0" disallow="tram rail_urban rail rail_electric rail_fast ship" speed="3.65" length="2.34" shape="331740.09,-927634.75 331740.19,-927636.19 331740.69,-927636.93"/>
    </edge>
    <edge id=":-102145_9" function="internal">
        <lane id=":-102145_9_0" index="0" disallow="tram rail_urban rail rail_electric rail_fast ship" speed="8.00" length="8.96" shape="331738.69,-927639.73 331738.74,-927641.58 331740.32,-927644.37 331743.40,-927646.75"/>
    </edge>
    <edge id=":-102145_10" function="internal">
        <lane id=":-102145_10_0" index="0" disallow="tram rail_urban rail rail_electric rail_fast ship" speed="3.65" length="2.34" shape="331740.69,-927636.93 331741.58,-927636.98 331742.87,-927636.34"/>
    </edge>
    <edge id=":-102145_3" function="internal">
        <lane id=":-102145_3_0" index="0" disallow="tram rail_urban rail rail_electric rail_fast ship" speed="6.50" length="9.03" shape="331744.98,-927643.97 331743.01,-927642.45 331742.01,-927640.68 331741.96,-927638.64 331742.87,-927636.34"/>
    </edge>
    <edge id=":-102145_4" function="internal">
        <lane id=":-102145_4_0" index="0" disallow="tram rail_urban rail rail_electric rail_fast ship" speed="9.71" length="13.63" shape="331744.98,-927643.97 331741.49,-927642.44 331738.18,-927641.90 331735.04,-927642.33 331732.06,-927643.75"/>
    </edge>
    <edge id=":-102145_5" function="internal">
        <lane id=":-102145_5_0" index="0" disallow="tram rail_urban rail rail_electric rail_fast ship" speed="3.65" length="4.67" shape="331744.98,-927643.97 331743.54,-927644.07 331742.80,-927644.57 331742.75,-927645.46 331743.40,-927646.75"/>
    </edge>
    <edge id=":-102145_6" function="internal">
        <lane id=":-102145_6_0" index="0" disallow="tram rail_urban rail rail_electric rail_fast ship" speed="8.43" length="10.11" shape="331733.82,-927646.42 331735.97,-927645.42 331738.29,-927645.14 331740.77,-927645.58 331743.40,-927646.75"/>
    </edge>
    <edge id=":-102145_7" function="internal">
        <lane id=":-102145_7_0" index="0" disallow="tram rail_urban rail rail_electric rail_fast ship" speed="13.89" length="13.69" shape="331733.82,-927646.42 331736.65,-927644.30 331738.98,-927641.98 331741.00,-927639.36 331742.87,-927636.34"/>
    </edge>
    <edge id=":-102145_8" function="internal">
        <lane id=":-102145_8_0" index="0" disallow="tram rail_urban rail rail_electric rail_fast ship" speed="3.65" length="2.34" shape="331733.82,-927646.42 331734.38,-927645.09 331734.27,-927644.21"/>
    </edge>
    <edge id=":-102145_11" function="internal">
        <lane id=":-102145_11_0" index="0" disallow="tram rail_urban rail rail_electric rail_fast ship" speed="3.65" length="2.34" shape="331734.27,-927644.21 331733.50,-927643.76 331732.06,-927643.75"/>
    </edge>
    <edge id=":-102147_0" function="internal">
        <lane id=":-102147_0_0" index="0" disallow="tram rail_urban rail rail_electric rail_fast ship" speed="13.89" length="19.06" shape="331326.57,-927928.10 331324.79,-927932.11 331322.27,-927936.61 331319.37,-927940.87 331316.48,-927944.13"/>
    </edge>
    <edge id=":-102147_1" function="internal">
        <lane id=":-102147_1_0" index="0" disallow="tram rail_urban rail rail_electric rail_fast ship" speed="13.89" length="20.46" shape="331326.57,-927928.10 331325.46,-927932.57 331324.78,-927938.19 331324.70,-927943.82 331325.37,-927948.33"/>
    </edge>
    <edge id=":-102147_2" function="internal">
        <lane id=":-102147_2_0" index="0" disallow="tram rail_urban rail rail_electric rail_fast ship" speed="7.40" length="9.51" shape="331326.57,-927928.10 331325.21,-927933.86 331326.20,-927937.16 331326.34,-927937.20"/>
    </edge>
    <edge id=":-102147_3" function="internal">
        <lane id=":-102147_3_0" index="0" disallow="tram rail_urban rail rail_electric rail_fast ship" speed="3.65" length="2.48" shape="331326.57,-927928.10 331326.92,-927929.50 331327.53,-927930.15 331327.67,-927930.13"/>
    </edge>
    <edge id=":-102147_16" function="internal">