<additional>
  <vType id="myType" maxSpeed="10" vClass="passenger"/>
</additional>

