<additional>
  <vType id="myType" maxSpeed="7.0" vClass="passenger"/>
</additional>

