<?xml version="1.0" encoding="UTF-8"?>

<!-- generated on 04/28/20 20:03:55 by Eclipse SUMO netconvert Version 1.2.0
<configuration xmlns:xsi="http://www.w3.org/2001/XMLSchema-instance" xsi:noNamespaceSchemaLocation="http://sumo.dlr.de/xsd/netconvertConfiguration.xsd">

    <input>
        <osm-files value="map_baru.osm"/>
    </input>

    <output>
        <output-file value="map_baru.net.xml"/>
    </output>

    <projection>
        <proj.utm value="true"/>
    </projection>

</configuration>
-->

<net version="1.1" junctionCornerDetail="5" limitTurnSpeed="5.50" xmlns:xsi="http://www.w3.org/2001/XMLSchema-instance" xsi:noNamespaceSchemaLocation="http://sumo.dlr.de/xsd/net_file.xsd">

    <location netOffset="-331212.88,928234.30" convBoundary="0.00,0.00,697.99,780.19" origBoundary="115.462269,-8.395525,115.501639,-8.341677" projParameter="+proj=utm +zone=50 +ellps=WGS84 +datum=WGS84 +units=m +no_defs"/>

    <type id="highway.bridleway" priority="1" numLanes="1" speed="2.78" allow="pedestrian" oneway="1" width="2.00"/>
    <type id="highway.bus_guideway" priority="1" numLanes="1" speed="27.78" allow="bus" oneway="1"/>
    <type id="highway.cycleway" priority="1" numLanes="1" speed="8.33" allow="bicycle" oneway="0" width="1.00"/>
    <type id="highway.footway" priority="1" numLanes="1" speed="2.78" allow="pedestrian" oneway="1" width="2.00"/>
    <type id="highway.ford" priority="1" numLanes="1" speed="2.78" allow="army" oneway="0"/>
    <type id="highway.living_street" priority="2" numLanes="1" speed="2.78" disallow="tram rail_urban rail rail_electric ship" oneway="0"/>
    <type id="highway.motorway" priority="14" numLanes="2" speed="39.44" allow="private emergency authority army vip passenger hov taxi bus coach delivery truck trailer motorcycle evehicle custom1 custom2" oneway="1"/>
    <type id="highway.motorway_link" priority="9" numLanes="1" speed="22.22" allow="private emergency authority army vip passenger hov taxi bus coach delivery truck trailer motorcycle evehicle custom1 custom2" oneway="1"/>
    <type id="highway.path" priority="1" numLanes="1" speed="2.78" allow="bicycle pedestrian" oneway="1" width="2.00"/>
    <type id="highway.pedestrian" priority="1" numLanes="1" speed="2.78" allow="pedestrian" oneway="1" width="2.00"/>
    <type id="highway.primary" priority="12" numLanes="2" speed="27.78" disallow="tram rail_urban rail rail_electric ship" oneway="0"/>
    <type id="highway.primary_link" priority="7" numLanes="1" speed="22.22" disallow="tram rail_urban rail rail_electric ship" oneway="0"/>
    <type id="highway.raceway" priority="15" numLanes="2" speed="83.33" allow="vip" oneway="0"/>
    <type id="highway.residential" priority="3" numLanes="1" speed="13.89" disallow="tram rail_urban rail rail_electric ship" oneway="0"/>
    <type id="highway.secondary" priority="11" numLanes="2" speed="27.78" disallow="tram rail_urban rail rail_electric ship" oneway="0"/>
    <type id="highway.secondary_link" priority="6" numLanes="1" speed="22.22" disallow="tram rail_urban rail rail_electric ship" oneway="0"/>
    <type id="highway.service" priority="1" numLanes="1" speed="5.56" allow="delivery bicycle pedestrian" oneway="0"/>
    <type id="highway.stairs" priority="1" numLanes="1" speed="1.39" allow="pedestrian" oneway="1" width="2.00"/>
    <type id="highway.step" priority="1" numLanes="1" speed="1.39" allow="pedestrian" oneway="1" width="2.00"/>
    <type id="highway.steps" priority="1" numLanes="1" speed="1.39" allow="pedestrian" oneway="1" width="2.00"/>
    <type id="highway.tertiary" priority="10" numLanes="1" speed="22.22" disallow="tram rail_urban rail rail_electric ship" oneway="0"/>
    <type id="highway.tertiary_link" priority="5" numLanes="1" speed="22.22" disallow="tram rail_urban rail rail_electric ship" oneway="0"/>
    <type id="highway.track" priority="1" numLanes="1" speed="5.56" disallow="tram rail_urban rail rail_electric ship" oneway="0"/>
    <type id="highway.trunk" priority="13" numLanes="2" speed="27.78" disallow="tram rail_urban rail rail_electric bicycle pedestrian ship" oneway="0"/>
    <type id="highway.trunk_link" priority="8" numLanes="1" speed="22.22" disallow="tram rail_urban rail rail_electric bicycle pedestrian ship" oneway="0"/>
    <type id="highway.unclassified" priority="4" numLanes="1" speed="13.89" disallow="tram rail_urban rail rail_electric ship" oneway="0"/>
    <type id="highway.unsurfaced" priority="1" numLanes="1" speed="8.33" disallow="tram rail_urban rail rail_electric ship" oneway="0"/>
    <type id="railway.light_rail" priority="19" numLanes="1" speed="27.78" allow="rail_urban" oneway="1"/>
    <type id="railway.preserved" priority="16" numLanes="1" speed="27.78" allow="rail" oneway="1"/>
    <type id="railway.rail" priority="20" numLanes="1" speed="83.33" allow="rail rail_electric" oneway="1"/>
    <type id="railway.subway" priority="18" numLanes="1" speed="27.78" allow="rail_urban" oneway="1"/>
    <type id="railway.tram" priority="17" numLanes="1" speed="13.89" allow="tram" oneway="1"/>

    <edge id=":-102127_0" function="internal">
        <lane id=":-102127_0_0" index="0" disallow="tram rail_urban rail rail_electric ship" speed="5.95" length="9.09" shape="395.92,455.46 394.49,453.27 392.82,452.31 390.90,452.56 388.74,454.04"/>
    </edge>
    <edge id=":-102127_1" function="internal">
        <lane id=":-102127_1_0" index="0" disallow="tram rail_urban rail rail_electric ship" speed="13.89" length="18.42" shape="395.92,455.46 394.44,451.45 393.25,446.67 392.44,441.80 392.13,437.52"/>
    </edge>
    <edge id=":-102127_2" function="internal">
        <lane id=":-102127_2_0" index="0" disallow="tram rail_urban rail rail_electric ship" speed="9.04" length="16.70" shape="395.92,455.46 395.25,451.68 396.13,447.47 398.22,443.56 401.21,440.71"/>
    </edge>
    <edge id=":-102127_3" function="internal">
        <lane id=":-102127_3_0" index="0" disallow="tram rail_urban rail rail_electric ship" speed="3.65" length="4.67" shape="395.92,455.46 396.14,454.03 396.69,453.33 397.59,453.35 398.82,454.10"/>
    </edge>
    <edge id=":-102127_4" function="internal">
        <lane id=":-102127_4_0" index="0" disallow="tram rail_urban rail rail_electric ship" speed="7.94" length="12.69" shape="402.90,443.43 400.01,445.74 398.37,448.29 397.97,451.08 398.82,454.10"/>
    </edge>
    <edge id=":-102127_5" function="internal">
        <lane id=":-102127_5_0" index="0" disallow="tram rail_urban rail rail_electric ship" speed="13.89" length="17.71" shape="402.90,443.43 399.42,445.73 395.62,448.46 391.92,451.33 388.74,454.04"/>
    </edge>
    <edge id=":-102127_6" function="internal">
        <lane id=":-102127_6_0" index="0" disallow="tram rail_urban rail rail_electric ship" speed="7.39" length="6.30" shape="402.90,443.43 398.24,445.56 397.07,445.46"/>
    </edge>
    <edge id=":-102127_7" function="internal">
        <lane id=":-102127_7_0" index="0" disallow="tram rail_urban rail rail_electric ship" speed="3.65" length="2.34" shape="402.90,443.43 401.46,443.38 400.70,442.92"/>
    </edge>
    <edge id=":-102127_16" function="internal">
        <lane id=":-102127_16_0" index="0" disallow="tram rail_urban rail rail_electric ship" speed="7.39" length="10.69" shape="397.07,445.46 394.88,445.28 392.85,442.61 392.13,437.52"/>
    </edge>
    <edge id=":-102127_17" function="internal">
        <lane id=":-102127_17_0" index="0" disallow="tram rail_urban rail rail_electric ship" speed="3.65" length="2.34" shape="400.70,442.92 400.61,442.03 401.21,440.71"/>
    </edge>
    <edge id=":-102127_8" function="internal">
        <lane id=":-102127_8_0" index="0" disallow="tram rail_urban rail rail_electric ship" speed="5.64" length="9.27" shape="395.33,437.49 395.72,440.27 396.83,441.73 398.66,441.87 401.21,440.71"/>
    </edge>
    <edge id=":-102127_9" function="internal">
        <lane id=":-102127_9_0" index="0" disallow="tram rail_urban rail rail_electric ship" speed="13.89" length="17.07" shape="395.33,437.49 395.60,441.56 396.30,445.97 397.38,450.30 398.82,454.10"/>
    </edge>
    <edge id=":-102127_10" function="internal">
        <lane id=":-102127_10_0" index="0" disallow="tram rail_urban rail rail_electric ship" speed="13.31" length="18.14" shape="395.33,437.49 394.79,441.85 393.31,446.57 391.19,450.90 388.74,454.04"/>
    </edge>
    <edge id=":-102127_11" function="internal">
        <lane id=":-102127_11_0" index="0" disallow="tram rail_urban rail rail_electric ship" speed="3.65" length="4.67" shape="395.33,437.49 394.54,438.70 393.75,439.11 392.94,438.72 392.13,437.52"/>
    </edge>
    <edge id=":-102127_12" function="internal">
        <lane id=":-102127_12_0" index="0" disallow="tram rail_urban rail rail_electric ship" speed="12.39" length="15.66" shape="386.58,451.68 389.04,448.86 390.79,445.56 391.82,441.78 392.13,437.52"/>
    </edge>
    <edge id=":-102127_13" function="internal">
        <lane id=":-102127_13_0" index="0" disallow="tram rail_urban rail rail_electric ship" speed="13.89" length="18.30" shape="386.58,451.68 389.83,448.91 393.69,445.92 397.65,443.07 401.21,440.71"/>
    </edge>
    <edge id=":-102127_14" function="internal">
        <lane id=":-102127_14_0" index="0" disallow="tram rail_urban rail rail_electric ship" speed="7.57" length="6.69" shape="386.58,451.68 390.26,449.16 392.48,448.87"/>
    </edge>
    <edge id=":-102127_15" function="internal">
        <lane id=":-102127_15_0" index="0" disallow="tram rail_urban rail rail_electric ship" speed="3.65" length="2.34" shape="386.58,451.68 388.01,451.46 388.84,451.78"/>
    </edge>
    <edge id=":-102127_18" function="internal">
        <lane id=":-102127_18_0" index="0" disallow="tram rail_urban rail rail_electric ship" speed="7.57" length="8.80" shape="392.48,448.87 393.52,448.73 396.38,450.37 398.82,454.10"/>
    </edge>
    <edge id=":-102127_19" function="internal">
        <lane id=":-102127_19_0" index="0" disallow="tram rail_urban rail rail_electric ship" speed="3.65" length="2.34" shape="388.84,451.78 389.09,452.64 388.74,454.04"/>
    </edge>
    <edge id=":-102130_0" function="internal">
        <lane id=":-102130_0_0" index="0" disallow="tram rail_urban rail rail_electric ship" speed="8.43" length="9.73" shape="435.40,531.96 433.32,530.98 431.09,530.68 428.70,531.05 426.14,532.09"/>
    </edge>
    <edge id=":-102130_1" function="internal">
        <lane id=":-102130_1_0" index="0" disallow="tram rail_urban rail rail_electric ship" speed="13.89" length="13.20" shape="435.40,531.96 432.64,529.87 430.49,527.60 428.73,525.01 427.13,521.92"/>
    </edge>
    <edge id=":-102130_2" function="internal">
        <lane id=":-102130_2_0" index="0" disallow="tram rail_urban rail rail_electric ship" speed="3.65" length="2.34" shape="435.40,531.96 434.83,530.63 434.94,529.74"/>
    </edge>
    <edge id=":-102130_9" function="internal">
        <lane id=":-102130_9_0" index="0" disallow="tram rail_urban rail rail_electric ship" speed="3.65" length="2.34" shape="434.94,529.74 435.71,529.29 437.16,529.29"/>
    </edge>
    <edge id=":-102130_3" function="internal">
        <lane id=":-102130_3_0" index="0" disallow="tram rail_urban rail rail_electric ship" speed="13.89" length="11.48" shape="430.02,520.56 431.45,523.44 432.82,525.59 434.58,527.40 437.16,529.29"/>
    </edge>
    <edge id=":-102130_4" function="internal">
        <lane id=":-102130_4_0" index="0" disallow="tram rail_urban rail rail_electric ship" speed="8.01" length="5.12" shape="430.02,520.56 431.12,524.14 431.00,525.51"/>
    </edge>
    <edge id=":-102130_5" function="internal">
        <lane id=":-102130_5_0" index="0" disallow="tram rail_urban rail rail_electric ship" speed="3.65" length="2.34" shape="430.02,520.56 429.81,521.98 429.25,522.69"/>
    </edge>
    <edge id=":-102130_10" function="internal">
        <lane id=":-102130_10_0" index="0" disallow="tram rail_urban rail rail_electric ship" speed="8.01" length="8.63" shape="431.00,525.51 430.84,527.26 429.18,529.91 426.14,532.09"/>
    </edge>
    <edge id=":-102130_11" function="internal">
        <lane id=":-102130_11_0" index="0" disallow="tram rail_urban rail rail_electric ship" speed="3.65" length="2.34" shape="429.25,522.69 428.36,522.66 427.13,521.92"/>
    </edge>
    <edge id=":-102130_6" function="internal">
        <lane id=":-102130_6_0" index="0" disallow="tram rail_urban rail rail_electric ship" speed="6.51" length="8.75" shape="424.66,529.26 426.59,527.87 427.65,526.18 427.83,524.20 427.13,521.92"/>
    </edge>
    <edge id=":-102130_7" function="internal">
        <lane id=":-102130_7_0" index="0" disallow="tram rail_urban rail rail_electric ship" speed="9.72" length="13.14" shape="424.66,529.26 428.04,527.90 431.25,527.45 434.29,527.91 437.16,529.29"/>
    </edge>
    <edge id=":-102130_8" function="internal">
        <lane id=":-102130_8_0" index="0" disallow="tram rail_urban rail rail_electric ship" speed="3.65" length="4.67" shape="424.66,529.26 426.09,529.41 426.82,529.93 426.83,530.83 426.14,532.09"/>
    </edge>
    <edge id=":-102138_0" function="internal">
        <lane id=":-102138_0_0" index="0" disallow="tram rail_urban rail rail_electric ship" speed="6.77" length="9.37" shape="416.28,88.49 415.80,86.08 414.61,84.35 412.71,83.28 410.11,82.89"/>
    </edge>
    <edge id=":-102138_1" function="internal">
        <lane id=":-102138_1_0" index="0" disallow="tram rail_urban rail rail_electric ship" speed="13.89" length="14.41" shape="416.28,88.49 415.61,74.10"/>
    </edge>
    <edge id=":-102138_2" function="internal">
        <lane id=":-102138_2_0" index="0" disallow="tram rail_urban rail rail_electric ship" speed="3.65" length="2.34" shape="416.28,88.49 417.02,87.26 417.80,86.82"/>
    </edge>
    <edge id=":-102138_9" function="internal">
        <lane id=":-102138_9_0" index="0" disallow="tram rail_urban rail rail_electric ship" speed="3.65" length="2.34" shape="417.80,86.82 418.62,87.18 419.47,88.35"/>
    </edge>
    <edge id=":-102138_3" function="internal">
        <lane id=":-102138_3_0" index="0" disallow="tram rail_urban rail rail_electric ship" speed="13.89" length="14.41" shape="418.81,73.95 419.47,88.35"/>
    </edge>
    <edge id=":-102138_4" function="internal">
        <lane id=":-102138_4_0" index="0" disallow="tram rail_urban rail rail_electric ship" speed="7.89" length="5.94" shape="418.81,73.95 418.42,77.92 417.47,79.63"/>
    </edge>
    <edge id=":-102138_5" function="internal">
        <lane id=":-102138_5_0" index="0" disallow="tram rail_urban rail rail_electric ship" speed="3.65" length="2.34" shape="418.81,73.95 418.06,75.18 417.28,75.62"/>
    </edge>
    <edge id=":-102138_10" function="internal">
        <lane id=":-102138_10_0" index="0" disallow="tram rail_urban rail rail_electric ship" speed="7.89" length="8.50" shape="417.47,79.63 416.84,80.74 414.07,82.39 410.11,82.89"/>
    </edge>
    <edge id=":-102138_11" function="internal">
        <lane id=":-102138_11_0" index="0" disallow="tram rail_urban rail rail_electric ship" speed="3.65" length="2.34" shape="417.28,75.62 416.47,75.26 415.61,74.10"/>
    </edge>
    <edge id=":-102138_6" function="internal">
        <lane id=":-102138_6_0" index="0" disallow="tram rail_urban rail rail_electric ship" speed="6.37" length="9.04" shape="410.17,79.69 412.65,79.38 414.38,78.34 415.37,76.58 415.61,74.10"/>
    </edge>
    <edge id=":-102138_7" function="internal">
        <lane id=":-102138_7_0" index="0" disallow="tram rail_urban rail rail_electric ship" speed="8.22" length="14.29" shape="410.17,79.69 414.09,80.29 416.95,81.94 418.74,84.62 419.47,88.35"/>
    </edge>
    <edge id=":-102138_8" function="internal">
        <lane id=":-102138_8_0" index="0" disallow="tram rail_urban rail rail_electric ship" speed="3.65" length="4.67" shape="410.17,79.69 411.35,80.51 411.74,81.32 411.32,82.11 410.11,82.89"/>
    </edge>
    <edge id=":-102139_0" function="internal">
        <lane id=":-102139_0_0" index="0" disallow="tram rail_urban rail rail_electric ship" speed="6.57" length="7.54" shape="235.87,555.28 234.44,553.86 232.85,553.10 231.09,553.01 229.16,553.56"/>
    </edge>
    <edge id=":-102139_1" function="internal">
        <lane id=":-102139_1_0" index="0" disallow="tram rail_urban rail rail_electric ship" speed="8.16" length="11.81" shape="235.87,555.28 234.29,552.55 233.76,549.83 234.26,547.11 235.81,544.40"/>
    </edge>
    <edge id=":-102139_2" function="internal">
        <lane id=":-102139_2_0" index="0" disallow="tram rail_urban rail rail_electric ship" speed="3.65" length="4.67" shape="235.87,555.28 235.77,553.84 236.16,553.04 237.04,552.87 238.41,553.33"/>
    </edge>
    <edge id=":-102139_3" function="internal">
        <lane id=":-102139_3_0" index="0" disallow="tram rail_urban rail rail_electric ship" speed="6.66" length="7.59" shape="238.35,546.34 237.36,548.08 237.04,549.82 237.39,551.57 238.41,553.33"/>
    </edge>
    <edge id=":-102139_4" function="internal">
        <lane id=":-102139_4_0" index="0" disallow="tram rail_urban rail rail_electric ship" speed="13.89" length="11.86" shape="238.35,546.34 236.28,548.86 234.34,550.69 232.10,552.14 229.16,553.56"/>
    </edge>
    <edge id=":-102139_5" function="internal">
        <lane id=":-102139_5_0" index="0" disallow="tram rail_urban rail rail_electric ship" speed="3.65" length="2.34" shape="238.35,546.34 236.99,546.81 236.11,546.64"/>
    </edge>
    <edge id=":-102139_9" function="internal">
        <lane id=":-102139_9_0" index="0" disallow="tram rail_urban rail rail_electric ship" speed="3.65" length="2.34" shape="236.11,546.64 235.71,545.84 235.81,544.40"/>
    </edge>
    <edge id=":-102139_6" function="internal">
        <lane id=":-102139_6_0" index="0" disallow="tram rail_urban rail rail_electric ship" speed="13.89" length="10.28" shape="227.87,550.64 230.62,549.37 232.42,548.25 233.93,546.77 235.81,544.40"/>
    </edge>
    <edge id=":-102139_7" function="internal">
        <lane id=":-102139_7_0" index="0" disallow="tram rail_urban rail rail_electric ship" speed="8.08" length="4.93" shape="227.87,550.64 230.90,549.76 232.68,549.86"/>
    </edge>
    <edge id=":-102139_8" function="internal">
        <lane id=":-102139_8_0" index="0" disallow="tram rail_urban rail rail_electric ship" speed="3.65" length="2.34" shape="227.87,550.64 229.29,550.88 229.98,551.45"/>
    </edge>
    <edge id=":-102139_10" function="internal">
        <lane id=":-102139_10_0" index="0" disallow="tram rail_urban rail rail_electric ship" speed="8.08" length="6.92" shape="232.68,549.86 233.67,549.91 236.17,551.10 238.41,553.33"/>
    </edge>
    <edge id=":-102139_11" function="internal">
        <lane id=":-102139_11_0" index="0" disallow="tram rail_urban rail rail_electric ship" speed="3.65" length="2.34" shape="229.98,551.45 229.94,552.35 229.16,553.56"/>
    </edge>
    <edge id=":-102140_0" function="internal">
        <lane id=":-102140_0_0" index="0" disallow="tram rail_urban rail rail_electric ship" speed="12.16" length="9.65" shape="253.24,531.42 250.54,532.30 248.79,533.23 247.35,534.60 245.59,536.83"/>
    </edge>
    <edge id=":-102140_1" function="internal">
        <lane id=":-102140_1_0" index="0" disallow="tram rail_urban rail rail_electric ship" speed="8.57" length="4.69" shape="253.24,531.42 250.31,531.88 248.60,531.62"/>
    </edge>
    <edge id=":-102140_2" function="internal">
        <lane id=":-102140_2_0" index="0" disallow="tram rail_urban rail rail_electric ship" speed="3.65" length="2.34" shape="253.24,531.42 251.86,530.99 251.25,530.34"/>
    </edge>
    <edge id=":-102140_9" function="internal">
        <lane id=":-102140_9_0" index="0" disallow="tram rail_urban rail rail_electric ship" speed="8.57" length="6.87" shape="248.60,531.62 247.62,531.46 245.17,530.17 242.95,528.00"/>
    </edge>
    <edge id=":-102140_10" function="internal">
        <lane id=":-102140_10_0" index="0" disallow="tram rail_urban rail rail_electric ship" speed="3.65" length="2.34" shape="251.25,530.34 251.40,529.46 252.33,528.35"/>
    </edge>
    <edge id=":-102140_3" function="internal">
        <lane id=":-102140_3_0" index="0" disallow="tram rail_urban rail rail_electric ship" speed="7.12" length="7.76" shape="245.45,525.99 246.95,527.47 248.59,528.36 250.38,528.65 252.33,528.35"/>
    </edge>
    <edge id=":-102140_4" function="internal">
        <lane id=":-102140_4_0" index="0" disallow="tram rail_urban rail rail_electric ship" speed="8.08" length="11.81" shape="245.45,525.99 247.07,528.68 247.63,531.38 247.14,534.10 245.59,536.83"/>
    </edge>
    <edge id=":-102140_5" function="internal">
        <lane id=":-102140_5_0" index="0" disallow="tram rail_urban rail rail_electric ship" speed="3.65" length="4.67" shape="245.45,525.99 245.57,527.43 245.20,528.24 244.33,528.43 242.95,528.00"/>
    </edge>
    <edge id=":-102140_6" function="internal">
        <lane id=":-102140_6_0" index="0" disallow="tram rail_urban rail rail_electric ship" speed="6.57" length="7.51" shape="243.04,534.89 244.03,533.16 244.34,531.43 243.98,529.71 242.95,528.00"/>
    </edge>
    <edge id=":-102140_7" function="internal">
        <lane id=":-102140_7_0" index="0" disallow="tram rail_urban rail rail_electric ship" speed="13.32" length="11.63" shape="243.04,534.89 245.09,532.39 247.02,530.66 249.28,529.41 252.33,528.35"/>
    </edge>
    <edge id=":-102140_8" function="internal">
        <lane id=":-102140_8_0" index="0" disallow="tram rail_urban rail rail_electric ship" speed="3.65" length="2.34" shape="243.04,534.89 244.40,534.42 245.28,534.59"/>
    </edge>
    <edge id=":-102140_11" function="internal">
        <lane id=":-102140_11_0" index="0" disallow="tram rail_urban rail rail_electric ship" speed="3.65" length="2.34" shape="245.28,534.59 245.68,535.39 245.59,536.83"/>
    </edge>
    <edge id=":-102145_0" function="internal">
        <lane id=":-102145_0_0" index="0" disallow="tram rail_urban rail rail_electric ship" speed="13.89" length="12.21" shape="517.21,589.55 515.50,586.70 513.83,584.46 511.85,582.51 509.18,580.56"/>
    </edge>
    <edge id=":-102145_1" function="internal">
        <lane id=":-102145_1_0" index="0" disallow="tram rail_urban rail rail_electric ship" speed="8.00" length="5.25" shape="517.21,589.55 515.78,585.93 515.81,584.57"/>
    </edge>
    <edge id=":-102145_2" function="internal">
        <lane id=":-102145_2_0" index="0" disallow="tram rail_urban rail rail_electric ship" speed="3.65" length="2.34" shape="517.21,589.55 517.31,588.11 517.81,587.37"/>
    </edge>
    <edge id=":-102145_9" function="internal">
        <lane id=":-102145_9_0" index="0" disallow="tram rail_urban rail rail_electric ship" speed="8.00" length="8.95" shape="515.81,584.57 515.86,582.72 517.44,579.93 520.52,577.55"/>
    </edge>
    <edge id=":-102145_10" function="internal">
        <lane id=":-102145_10_0" index="0" disallow="tram rail_urban rail rail_electric ship" speed="3.65" length="2.34" shape="517.81,587.37 518.70,587.32 519.99,587.97"/>
    </edge>
    <edge id=":-102145_3" function="internal">
        <lane id=":-102145_3_0" index="0" disallow="tram rail_urban rail rail_electric ship" speed="6.50" length="9.03" shape="522.10,580.34 520.13,581.85 519.13,583.63 519.08,585.67 519.99,587.97"/>
    </edge>
    <edge id=":-102145_4" function="internal">
        <lane id=":-102145_4_0" index="0" disallow="tram rail_urban rail rail_electric ship" speed="9.70" length="13.63" shape="522.10,580.34 518.61,581.86 515.30,582.41 512.16,581.97 509.18,580.56"/>
    </edge>
    <edge id=":-102145_5" function="internal">
        <lane id=":-102145_5_0" index="0" disallow="tram rail_urban rail rail_electric ship" speed="3.65" length="4.67" shape="522.10,580.34 520.66,580.23 519.92,579.73 519.87,578.84 520.52,577.55"/>
    </edge>
    <edge id=":-102145_6" function="internal">
        <lane id=":-102145_6_0" index="0" disallow="tram rail_urban rail rail_electric ship" speed="8.43" length="10.11" shape="510.94,577.88 513.10,578.89 515.41,579.17 517.89,578.72 520.52,577.55"/>
    </edge>
    <edge id=":-102145_7" function="internal">
        <lane id=":-102145_7_0" index="0" disallow="tram rail_urban rail rail_electric ship" speed="13.89" length="13.69" shape="510.94,577.88 513.77,580.01 516.10,582.33 518.12,584.95 519.99,587.97"/>
    </edge>
    <edge id=":-102145_8" function="internal">
        <lane id=":-102145_8_0" index="0" disallow="tram rail_urban rail rail_electric ship" speed="3.65" length="2.34" shape="510.94,577.88 511.50,579.21 511.39,580.10"/>
    </edge>
    <edge id=":-102145_11" function="internal">
        <lane id=":-102145_11_0" index="0" disallow="tram rail_urban rail rail_electric ship" speed="3.65" length="2.34" shape="511.39,580.10 510.62,580.55 509.18,580.56"/>
    </edge>
    <edge id=":-102147_0" function="internal">
        <lane id=":-102147_0_0" index="0" disallow="tram rail_urban rail rail_electric ship" speed="13.89" length="19.06" shape="103.69,296.20 101.91,292.18 99.39,287.68 96.49,283.43 93.60,280.17"/>
    </edge>
    <edge id=":-102147_1" function="internal">
        <lane id=":-102147_1_0" index="0" disallow="tram rail_urban rail rail_electric ship" speed="13.89" length="20.46" shape="103.69,296.20 102.58,291.72 101.90,286.11 101.82,280.48 102.49,275.96"/>
    </edge>
    <edge id=":-102147_2" function="internal">
        <lane id=":-102147_2_0" index="0" disallow="tram rail_urban rail rail_electric ship" speed="7.40" length="9.51" shape="103.69,296.20 102.33,290.44 103.32,287.13 103.46,287.10"/>
    </edge>
    <edge id=":-102147_3" function="internal">
        <lane id=":-102147_3_0" index="0" disallow="tram rail_urban rail rail_electric ship" speed="3.65" length="2.48" shape="103.69,296.20 104.03,294.80 104.65,294.15 104.79,294.16"/>
    </edge>
    <edge id=":-102147_16" function="internal">
        <lane id=":-102147_16_0" index="0" disallow="tram rail_urban rail rail_electric ship" speed="7.40" length="9.22" shape="103.46,287.10 106.67,286.28 112.36,287.88"/>
    </edge>
    <edge id=":-102147_17" function="internal">
        <lane id=":-102147_17_0" index="0" disallow="tram rail_urban rail rail_electric ship" speed="3.65" length="2.19" shape="104.79,294.16 105.54,294.25 106.70,295.10"/>
    </edge>
    <edge id=":-102147_4" function="internal">
        <lane id=":-102147_4_0" index="0" disallow="tram rail_urban rail rail_electric ship" speed="5.50" length="9.61" shape="111.15,290.84 108.23,290.02 106.51,290.46 106.00,292.15 106.70,295.10"/>
    </edge>
    <edge id=":-102147_5" function="internal">
        <lane id=":-102147_5_0" index="0" disallow="tram rail_urban rail rail_electric ship" speed="13.89" length="20.60" shape="111.15,290.84 106.97,288.84 102.02,286.05 97.25,282.99 93.60,280.17"/>
    </edge>
    <edge id=":-102147_6" function="internal">
        <lane id=":-102147_6_0" index="0" disallow="tram rail_urban rail rail_electric ship" speed="9.55" length="19.21" shape="111.15,290.84 106.20,288.10 103.11,284.71 101.87,280.66 102.49,275.96"/>
    </edge>
    <edge id=":-102147_7" function="internal">
        <lane id=":-102147_7_0" index="0" disallow="tram rail_urban rail rail_electric ship" speed="3.65" length="4.67" shape="111.15,290.84 110.34,289.64 110.28,288.75 110.95,288.16 112.36,287.88"/>
    </edge>
    <edge id=":-102147_8" function="internal">
        <lane id=":-102147_8_0" index="0" disallow="tram rail_urban rail rail_electric ship" speed="8.33" length="14.40" shape="105.55,276.91 105.14,280.31 106.14,283.28 108.55,285.80 112.36,287.88"/>
    </edge>
    <edge id=":-102147_9" function="internal">
        <lane id=":-102147_9_0" index="0" disallow="tram rail_urban rail rail_electric ship" speed="13.89" length="18.44" shape="105.55,276.91 104.87,281.10 104.93,286.03 105.59,290.95 106.70,295.10"/>
    </edge>
    <edge id=":-102147_10" function="internal">
        <lane id=":-102147_10_0" index="0" disallow="tram rail_urban rail rail_electric ship" speed="7.45" length="4.92" shape="105.55,276.91 103.53,281.26 103.43,281.33"/>
    </edge>
    <edge id=":-102147_11" function="internal">
        <lane id=":-102147_11_0" index="0" disallow="tram rail_urban rail rail_electric ship" speed="3.65" length="2.07" shape="105.55,276.91 104.43,277.82 103.82,277.92"/>
    </edge>
    <edge id=":-102147_18" function="internal">
        <lane id=":-102147_18_0" index="0" disallow="tram rail_urban rail rail_electric ship" speed="7.45" length="11.34" shape="103.43,281.33 100.86,283.25 97.55,282.89 93.60,280.17"/>
    </edge>
    <edge id=":-102147_19" function="internal">
        <lane id=":-102147_19_0" index="0" disallow="tram rail_urban rail rail_electric ship" speed="3.65" length="2.61" shape="103.82,277.92 103.55,277.96 102.90,277.35 102.49,275.96"/>
    </edge>
    <edge id=":-102147_12" function="internal">
        <lane id=":-102147_12_0" index="0" disallow="tram rail_urban rail rail_electric ship" speed="5.76" length="9.17" shape="95.75,277.80 97.98,279.34 99.85,279.54 101.35,278.42 102.49,275.96"/>
    </edge>
    <edge id=":-102147_13" function="internal">
        <lane id=":-102147_13_0" index="0" disallow="tram rail_urban rail rail_electric ship" speed="13.89" length="19.49" shape="95.75,277.80 99.26,280.53 103.71,283.39 108.34,285.98 112.36,287.88"/>
    </edge>
    <edge id=":-102147_14" function="internal">
        <lane id=":-102147_14_0" index="0" disallow="tram rail_urban rail rail_electric ship" speed="13.89" length="20.58" shape="95.75,277.80 98.78,281.27 101.97,285.95 104.79,290.89 106.70,295.10"/>
    </edge>
    <edge id=":-102147_15" function="internal">