<?xml version="1.0" encoding="UTF-8"?>

<!-- generated on Fri 28 Feb 2020 09:33:01 AM WITA by Eclipse SUMO netedit Version 1.4.0
<configuration xmlns:xsi="http://www.w3.org/2001/XMLSchema-instance" xsi:noNamespaceSchemaLocation="http://sumo.dlr.de/xsd/netconvertConfiguration.xsd">

    <input>
        <sumo-net-file value="sebudi.net.xml"/>
    </input>

    <output>
        <output-file value="/home/adisaputra/osm%20files/sebudi_edit.net.xml"/>
    </output>

    <processing>
        <geometry.min-radius.fix.railways value="false"/>
        <geometry.max-grade.fix value="false"/>
        <offset.disable-normalization value="true"/>
        <lefthand value="false"/>
    </processing>

    <junctions>
        <no-turnarounds value="true"/>
        <junctions.corner-detail value="5"/>
        <junctions.limit-turn-speed value="5.5"/>
        <rectangular-lane-cut value="false"/>
    </junctions>

    <pedestrian>
        <walkingareas value="false"/>
    </pedestrian>

    <report>
        <aggregate-warnings value="5"/>
    </report>

</configuration>
-->

<net version="1.3" junctionCornerDetail="5" limitTurnSpeed="5.50" xmlns:xsi="http://www.w3.org/2001/XMLSchema-instance" xsi:noNamespaceSchemaLocation="http://sumo.dlr.de/xsd/net_file.xsd">

    <location netOffset="-329165.89,930795.17" convBoundary="18.57,0.00,3234.80,4455.53" origBoundary="115.448347,-8.417527,115.477864,-8.377353" projParameter="+proj=utm +zone=50 +ellps=WGS84 +datum=WGS84 +units=m +no_defs"/>

    <type id="highway.bridleway" priority="1" numLanes="1" speed="2.78" allow="pedestrian" oneway="1" width="2.00"/>
    <type id="highway.bus_guideway" priority="1" numLanes="1" speed="27.78" allow="bus" oneway="1"/>
    <type id="highway.cycleway" priority="1" numLanes="1" speed="8.33" allow="bicycle" oneway="0" width="1.00"/>
    <type id="highway.footway" priority="1" numLanes="1" speed="2.78" allow="pedestrian" oneway="1" width="2.00"/>
    <type id="highway.ford" priority="1" numLanes="1" speed="2.78" allow="army" oneway="0"/>
    <type id="highway.living_street" priority="2" numLanes="1" speed="2.78" disallow="tram rail_urban rail rail_electric rail_fast ship" oneway="0"/>
    <type id="highway.motorway" priority="14" numLanes="2" speed="39.44" allow="private emergency authority army vip passenger hov taxi bus coach delivery truck trailer motorcycle evehicle custom1 custom2" oneway="1"/>
    <type id="highway.motorway_link" priority="9" numLanes="1" speed="22.22" allow="private emergency authority army vip passenger hov taxi bus coach delivery truck trailer motorcycle evehicle custom1 custom2" oneway="1"/>
    <type id="highway.path" priority="1" numLanes="1" speed="2.78" allow="pedestrian bicycle" oneway="1" width="2.00"/>
    <type id="highway.pedestrian" priority="1" numLanes="1" speed="2.78" allow="pedestrian" oneway="1" width="2.00"/>
    <type id="highway.primary" priority="12" numLanes="2" speed="27.78" disallow="tram rail_urban rail rail_electric rail_fast ship" oneway="0"/>
    <type id="highway.primary_link" priority="7" numLanes="1" speed="22.22" disallow="tram rail_urban rail rail_electric rail_fast ship" oneway="0"/>
    <type id="highway.raceway" priority="15" numLanes="2" speed="83.33" allow="vip" oneway="0"/>
    <type id="highway.residential" priority="3" numLanes="1" speed="13.89" disallow="tram rail_urban rail rail_electric rail_fast ship" oneway="0"/>
    <type id="highway.secondary" priority="11" numLanes="1" speed="27.78" disallow="tram rail_urban rail rail_electric rail_fast ship" oneway="0"/>
    <type id="highway.secondary_link" priority="6" numLanes="1" speed="22.22" disallow="tram rail_urban rail rail_electric rail_fast ship" oneway="0"/>
    <type id="highway.service" priority="1" numLanes="1" speed="5.56" allow="pedestrian delivery bicycle" oneway="0"/>
    <type id="highway.stairs" priority="1" numLanes="1" speed="1.39" allow="pedestrian" oneway="1" width="2.00"/>
    <type id="highway.step" priority="1" numLanes="1" speed="1.39" allow="pedestrian" oneway="1" width="2.00"/>
    <type id="highway.steps" priority="1" numLanes="1" speed="1.39" allow="pedestrian" oneway="1" width="2.00"/>
    <type id="highway.tertiary" priority="10" numLanes="1" speed="22.22" disallow="tram rail_urban rail rail_electric rail_fast ship" oneway="0"/>
    <type id="highway.tertiary_link" priority="5" numLanes="1" speed="22.22" disallow="tram rail_urban rail rail_electric rail_fast ship" oneway="0"/>
    <type id="highway.track" priority="1" numLanes="1" speed="5.56" disallow="tram rail_urban rail rail_electric rail_fast ship" oneway="0"/>
    <type id="highway.trunk" priority="13" numLanes="2" speed="27.78" disallow="pedestrian bicycle tram rail_urban rail rail_electric rail_fast ship" oneway="0"/>
    <type id="highway.trunk_link" priority="8" numLanes="1" speed="22.22" disallow="pedestrian bicycle tram rail_urban rail rail_electric rail_fast ship" oneway="0"/>
    <type id="highway.unclassified" priority="4" numLanes="1" speed="13.89" disallow="tram rail_urban rail rail_electric rail_fast ship" oneway="0"/>
    <type id="highway.unsurfaced" priority="1" numLanes="1" speed="8.33" disallow="tram rail_urban rail rail_electric rail_fast ship" oneway="0"/>
    <type id="railway.highspeed" priority="21" numLanes="1" speed="69.44" allow="rail_fast" oneway="1"/>
    <type id="railway.light_rail" priority="19" numLanes="1" speed="27.78" allow="rail_urban" oneway="1"/>
    <type id="railway.preserved" priority="16" numLanes="1" speed="27.78" allow="rail" oneway="1"/>
    <type id="railway.rail" priority="20" numLanes="1" speed="44.44" allow="rail" oneway="1"/>
    <type id="railway.subway" priority="18" numLanes="1" speed="27.78" allow="rail_urban" oneway="1"/>
    <type id="railway.tram" priority="17" numLanes="1" speed="13.89" allow="tram" oneway="1"/>

    <edge id=":1553949743_0" function="internal">
        <lane id=":1553949743_0_0" index="0" disallow="tram rail_urban rail rail_electric rail_fast ship" speed="6.08" length="7.50" shape="2046.61,2712.58 2046.15,2710.59 2046.41,2708.90 2047.41,2707.52 2049.15,2706.44"/>
    </edge>
    <edge id=":1553949743_1" function="internal">
        <lane id=":1553949743_1_0" index="0" disallow="tram rail_urban rail rail_electric rail_fast ship" speed="3.65" length="4.67" shape="2046.61,2712.58 2046.92,2711.17 2047.52,2710.51 2048.41,2710.59 2049.60,2711.41"/>
    </edge>
    <edge id=":1553949743_2" function="internal">
        <lane id=":1553949743_2_0" index="0" disallow="tram rail_urban rail rail_electric rail_fast ship" speed="3.91" length="2.50" shape="2050.44,2709.37 2049.86,2709.73 2049.53,2710.19 2049.44,2710.75 2049.60,2711.41"/>
    </edge>
    <edge id=":1553949743_3" function="internal">
        <lane id=":1553949743_3_0" index="0" disallow="tram rail_urban rail rail_electric rail_fast ship" speed="3.65" length="4.67" shape="2050.44,2709.37 2049.02,2709.12 2048.33,2708.55 2048.38,2707.66 2049.15,2706.44"/>
    </edge>
    <edge id=":1553949789_0" function="internal">
        <lane id=":1553949789_0_0" index="0" disallow="tram rail_urban rail rail_electric rail_fast ship" speed="6.24" length="5.42" shape="2359.74,3342.03 2358.35,3342.26 2357.06,3342.10 2355.89,3341.56 2354.82,3340.63"/>
    </edge>
    <edge id=":1553949789_1" function="internal">
        <lane id=":1553949789_1_0" index="0" disallow="tram rail_urban rail rail_electric rail_fast ship" speed="3.65" length="4.67" shape="2359.74,3342.03 2358.37,3341.60 2357.76,3340.94 2357.92,3340.06 2358.84,3338.96"/>
    </edge>
    <edge id=":1553949789_2" function="internal">
        <lane id=":1553949789_2_0" index="0" disallow="tram rail_urban rail rail_electric rail_fast ship" speed="3.99" length="1.81" shape="2357.20,3338.49 2357.56,3338.80 2357.95,3338.98 2358.38,3339.04 2358.84,3338.96"/>
    </edge>
    <edge id=":1553949789_3" function="internal">
        <lane id=":1553949789_3_0" index="0" disallow="tram rail_urban rail rail_electric rail_fast ship" speed="3.65" length="4.67" shape="2357.20,3338.49 2357.41,3339.92 2357.08,3340.75 2356.22,3340.99 2354.82,3340.63"/>
    </edge>
    <edge id=":4486134513_0" function="internal">
        <lane id=":4486134513_0_0" index="0" disallow="tram rail_urban rail rail_electric rail_fast ship" speed="5.56" length="18.00" shape="2527.06,3296.25 2523.42,3298.31 2518.96,3300.00 2514.33,3301.27 2510.16,3302.08"/>
    </edge>
    <edge id=":4486134513_1" function="internal">
        <lane id=":4486134513_1_0" index="0" disallow="tram rail_urban rail rail_electric rail_fast ship" speed="9.62" length="17.33" shape="2527.06,3296.25 2523.73,3297.79 2520.01,3297.74 2515.90,3296.13 2511.40,3292.93"/>
    </edge>
    <edge id=":4486134513_2" function="internal">
        <lane id=":4486134513_2_0" index="0" disallow="tram rail_urban rail rail_electric rail_fast ship" speed="3.65" length="4.67" shape="2527.06,3296.25 2525.62,3296.32 2524.82,3295.92 2524.66,3295.03 2525.15,3293.68"/>
    </edge>
    <edge id=":4486134513_3" function="internal">
        <lane id=":4486134513_3_0" index="0" disallow="tram rail_urban rail rail_electric rail_fast ship" speed="8.41" length="13.02" shape="2513.47,3290.49 2516.99,3293.06 2520.11,3294.45 2522.83,3294.66 2525.15,3293.68"/>
    </edge>
    <edge id=":4486134513_4" function="internal">
        <lane id=":4486134513_4_0" index="0" disallow="tram rail_urban rail rail_electric rail_fast ship" speed="7.39" length="18.50" shape="2513.47,3290.49 2517.43,3294.75 2518.19,3298.10 2515.77,3300.54 2510.16,3302.08"/>
    </edge>
    <edge id=":4486134513_5" function="internal">
        <lane id=":4486134513_5_0" index="0" disallow="tram rail_urban rail rail_electric rail_fast ship" speed="3.65" length="4.67" shape="2513.47,3290.49 2513.87,3291.88 2513.65,3292.74 2512.83,3293.09 2511.40,3292.93"/>
    </edge>
    <edge id=":4486134513_6" function="internal">
        <lane id=":4486134513_6_0" index="0" disallow="tram rail_urban rail rail_electric rail_fast ship" speed="5.51" length="9.56" shape="2509.69,3298.91 2512.59,3298.12 2513.84,3296.86 2513.44,3295.13 2511.40,3292.93"/>
    </edge>
    <edge id=":4486134513_7" function="internal">
        <lane id=":4486134513_7_0" index="0" disallow="tram rail_urban rail rail_electric rail_fast ship" speed="5.56" length="16.46" shape="2509.69,3298.91 2513.63,3298.20 2517.77,3297.13 2521.74,3295.65 2525.15,3293.68"/>
    </edge>
    <edge id=":4486134513_8" function="internal">
        <lane id=":4486134513_8_0" index="0" disallow="tram rail_urban rail rail_electric rail_fast ship" speed="3.65" length="4.67" shape="2509.69,3298.91 2511.00,3299.52 2511.51,3300.26 2511.23,3301.11 2510.16,3302.08"/>
    </edge>
    <edge id=":4486134560_0" function="internal">
        <lane id=":4486134560_0_0" index="0" disallow="tram rail_urban rail rail_electric rail_fast ship" speed="9.05" length="9.50" shape="2209.99,2695.43 2208.88,2692.62 2207.59,2690.46 2206.14,2688.93 2204.51,2688.05"/>
    </edge>
    <edge id=":4486134560_1" function="internal">
        <lane id=":4486134560_1_0" index="0" disallow="tram rail_urban rail rail_electric rail_fast ship" speed="7.57" length="4.46" shape="2209.99,2695.43 2209.44,2691.75 2209.70,2691.05"/>
    </edge>
    <edge id=":4486134560_2" function="internal">
        <lane id=":4486134560_2_0" index="0" disallow="tram rail_urban rail rail_electric rail_fast ship" speed="3.68" length="1.91" shape="2209.99,2695.43 2210.68,2694.12 2211.04,2693.89"/>
    </edge>
    <edge id=":4486134560_9" function="internal">
        <lane id=":4486134560_9_0" index="0" disallow="tram rail_urban rail rail_electric rail_fast ship" speed="7.57" length="9.90" shape="2209.70,2691.05 2210.48,2688.94 2213.12,2686.98 2217.35,2685.89"/>
    </edge>
    <edge id=":4486134560_10" function="internal">
        <lane id=":4486134560_10_0" index="0" disallow="tram rail_urban rail rail_electric rail_fast ship" speed="3.68" length="2.88" shape="2211.04,2693.89 2211.45,2693.63 2212.31,2693.96 2213.25,2695.10"/>
    </edge>
    <edge id=":4486134560_3" function="internal">
        <lane id=":4486134560_3_0" index="0" disallow="tram rail_urban rail rail_electric rail_fast ship" speed="6.13" length="9.00" shape="2217.77,2689.06 2215.15,2689.75 2213.52,2690.98 2212.89,2692.77 2213.25,2695.10"/>
    </edge>
    <edge id=":4486134560_4" function="internal">
        <lane id=":4486134560_4_0" index="0" disallow="tram rail_urban rail rail_electric rail_fast ship" speed="9.72" length="13.43" shape="2217.77,2689.06 2214.28,2689.40 2211.06,2689.39 2207.89,2688.96 2204.51,2688.05"/>
    </edge>
    <edge id=":4486134560_5" function="internal">
        <lane id=":4486134560_5_0" index="0" disallow="tram rail_urban rail rail_electric rail_fast ship" speed="3.65" length="4.67" shape="2217.77,2689.06 2216.48,2688.42 2215.98,2687.68 2216.27,2686.84 2217.35,2685.89"/>
    </edge>
    <edge id=":4486134560_6" function="internal">
        <lane id=":4486134560_6_0" index="0" disallow="tram rail_urban rail rail_electric rail_fast ship" speed="9.72" length="12.01" shape="2205.51,2685.01 2208.67,2685.90 2211.35,2686.28 2214.08,2686.25 2217.35,2685.89"/>
    </edge>
    <edge id=":4486134560_7" function="internal">
        <lane id=":4486134560_7_0" index="0" disallow="tram rail_urban rail rail_electric rail_fast ship" speed="10.57" length="13.15" shape="2205.51,2685.01 2207.86,2686.25 2209.93,2688.35 2211.72,2691.30 2213.25,2695.10"/>
    </edge>
    <edge id=":4486134560_8" function="internal">
        <lane id=":4486134560_8_0" index="0" disallow="tram rail_urban rail rail_electric rail_fast ship" speed="3.65" length="2.61" shape="2205.51,2685.01 2206.40,2686.14 2206.53,2687.03 2206.34,2687.22"/>
    </edge>
    <edge id=":4486134560_11" function="internal">
        <lane id=":4486134560_11_0" index="0" disallow="tram rail_urban rail rail_electric rail_fast ship" speed="3.65" length="2.07" shape="2206.34,2687.22 2205.90,2687.66 2204.51,2688.05"/>
    </edge>
    <edge id=":5130233478_0" function="internal">
        <lane id=":5130233478_0_0" index="0" disallow="tram rail_urban rail rail_electric rail_fast ship" speed="22.22" length="14.00" shape="2128.49,2981.39 2123.70,2968.23"/>
    </edge>
    <edge id=":5130233478_1" function="internal">
        <lane id=":5130233478_1_0" index="0" disallow="tram rail_urban rail rail_electric rail_fast ship" speed="8.01" length="5.66" shape="2128.49,2981.39 2127.79,2977.63 2128.17,2975.83"/>
    </edge>
    <edge id=":5130233478_2" function="internal">
        <lane id=":5130233478_2_0" index="0" disallow="tram rail_urban rail rail_electric rail_fast ship" speed="3.65" length="2.34" shape="2128.49,2981.39 2128.86,2979.99 2129.49,2979.36"/>
    </edge>
    <edge id=":5130233478_9" function="internal">
        <lane id=":5130233478_9_0" index="0" disallow="tram rail_urban rail rail_electric rail_fast ship" speed="8.01" length="8.31" shape="2128.17,2975.83 2128.45,2974.54 2130.46,2972.09 2133.83,2970.30"/>
    </edge>
    <edge id=":5130233478_10" function="internal">
        <lane id=":5130233478_10_0" index="0" disallow="tram rail_urban rail rail_electric rail_fast ship" speed="3.65" length="2.34" shape="2129.49,2979.36 2130.38,2979.48 2131.52,2980.36"/>
    </edge>
    <edge id=":5130233478_3" function="internal">
        <lane id=":5130233478_3_0" index="0" disallow="tram rail_urban rail rail_electric rail_fast ship" speed="6.51" length="8.89" shape="2134.92,2973.31 2132.77,2974.45 2131.49,2976.00 2131.07,2977.98 2131.52,2980.36"/>
    </edge>
    <edge id=":5130233478_4" function="internal">
        <lane id=":5130233478_4_0" index="0" disallow="tram rail_urban rail rail_electric rail_fast ship" speed="8.01" length="13.97" shape="2134.92,2973.31 2131.18,2974.09 2128.07,2973.50 2125.58,2971.55 2123.70,2968.23"/>
    </edge>
    <edge id=":5130233478_5" function="internal">
        <lane id=":5130233478_5_0" index="0" disallow="tram rail_urban rail rail_electric rail_fast ship" speed="3.65" length="4.67" shape="2134.92,2973.31 2133.52,2972.96 2132.87,2972.35 2132.97,2971.46 2133.83,2970.30"/>
    </edge>
    <edge id=":5130233478_6" function="internal">
        <lane id=":5130233478_6_0" index="0" disallow="tram rail_urban rail rail_electric rail_fast ship" speed="6.52" length="8.90" shape="2126.68,2967.06 2127.88,2969.18 2129.47,2970.42 2131.45,2970.80 2133.83,2970.30"/>
    </edge>
    <edge id=":5130233478_7" function="internal">
        <lane id=":5130233478_7_0" index="0" disallow="tram rail_urban rail rail_electric rail_fast ship" speed="22.22" length="14.15" shape="2126.68,2967.06 2131.52,2980.36"/>
    </edge>
    <edge id=":5130233478_8" function="internal">
        <lane id=":5130233478_8_0" index="0" disallow="tram rail_urban rail rail_electric rail_fast ship" speed="3.65" length="2.34" shape="2126.68,2967.06 2126.38,2968.47 2125.78,2969.14"/>
    </edge>
    <edge id=":5130233478_11" function="internal">
        <lane id=":5130233478_11_0" index="0" disallow="tram rail_urban rail rail_electric rail_fast ship" speed="3.65" length="2.34" shape="2125.78,2969.14 2124.88,2969.05 2123.70,2968.23"/>
    </edge>
    <edge id=":5130333344_0" function="internal">
        <lane id=":5130333344_0_0" index="0" disallow="tram rail_urban rail rail_electric rail_fast ship" speed="7.17" length="9.78" shape="2291.43,2934.28 2290.00,2932.31 2288.12,2931.17 2285.80,2930.86 2283.05,2931.39"/>
    </edge>
    <edge id=":5130333344_1" function="internal">
        <lane id=":5130333344_1_0" index="0" disallow="tram rail_urban rail rail_electric rail_fast ship" speed="13.89" length="14.38" shape="2291.43,2934.28 2285.25,2921.30"/>
    </edge>
    <edge id=":5130333344_2" function="internal">
        <lane id=":5130333344_2_0" index="0" disallow="tram rail_urban rail rail_electric rail_fast ship" speed="3.65" length="2.34" shape="2291.43,2934.28 2291.60,2932.85 2292.13,2932.13"/>
    </edge>
    <edge id=":5130333344_9" function="internal">
        <lane id=":5130333344_9_0" index="0" disallow="tram rail_urban rail rail_electric rail_fast ship" speed="3.65" length="2.34" shape="2292.13,2932.13 2293.03,2932.12 2294.28,2932.83"/>
    </edge>
    <edge id=":5130333344_3" function="internal">
        <lane id=":5130333344_3_0" index="0" disallow="tram rail_urban rail rail_electric rail_fast ship" speed="13.89" length="14.21" shape="2288.17,2919.99 2294.28,2932.83"/>
    </edge>
    <edge id=":5130333344_4" function="internal">
        <lane id=":5130333344_4_0" index="0" disallow="tram rail_urban rail rail_electric rail_fast ship" speed="7.81" length="5.73" shape="2288.17,2919.99 2289.29,2923.92 2289.04,2925.55"/>
    </edge>
    <edge id=":5130333344_5" function="internal">
        <lane id=":5130333344_5_0" index="0" disallow="tram rail_urban rail rail_electric rail_fast ship" speed="3.65" length="2.34" shape="2288.17,2919.99 2287.93,2921.42 2287.36,2922.11"/>
    </edge>
    <edge id=":5130333344_10" function="internal">
        <lane id=":5130333344_10_0" index="0" disallow="tram rail_urban rail rail_electric rail_fast ship" speed="7.81" length="8.92" shape="2289.04,2925.55 2288.81,2927.13 2286.73,2929.62 2283.05,2931.39"/>
    </edge>
    <edge id=":5130333344_11" function="internal">
        <lane id=":5130333344_11_0" index="0" disallow="tram rail_urban rail rail_electric rail_fast ship" speed="3.65" length="2.34" shape="2287.36,2922.11 2286.47,2922.07 2285.25,2921.30"/>
    </edge>
    <edge id=":5130333344_6" function="internal">
        <lane id=":5130333344_6_0" index="0" disallow="tram rail_urban rail rail_electric rail_fast ship" speed="6.27" length="9.04" shape="2282.09,2928.33 2284.36,2927.24 2285.64,2925.71 2285.94,2923.73 2285.25,2921.30"/>
    </edge>
    <edge id=":5130333344_7" function="internal">
        <lane id=":5130333344_7_0" index="0" disallow="tram rail_urban rail rail_electric rail_fast ship" speed="8.57" length="14.33" shape="2282.09,2928.33 2286.05,2927.61 2289.40,2928.11 2292.15,2929.85 2294.28,2932.83"/>
    </edge>
    <edge id=":5130333344_8" function="internal">
        <lane id=":5130333344_8_0" index="0" disallow="tram rail_urban rail rail_electric rail_fast ship" speed="3.65" length="4.67" shape="2282.09,2928.33 2283.47,2928.74 2284.09,2929.38 2283.95,2930.26 2283.05,2931.39"/>
    </edge>
    <edge id=":5130333345_0" function="internal">
        <lane id=":5130333345_0_0" index="0" disallow="tram rail_urban rail rail_electric rail_fast ship" speed="6.48" length="9.13" shape="2310.10,2972.29 2308.85,2970.14 2307.20,2968.94 2305.16,2968.67 2302.71,2969.35"/>
    </edge>
    <edge id=":5130333345_1" function="internal">
        <lane id=":5130333345_1_0" index="0" disallow="tram rail_urban rail rail_electric rail_fast ship" speed="13.89" length="14.54" shape="2310.10,2972.29 2308.69,2968.89 2307.24,2965.61 2305.72,2962.35 2304.08,2959.06"/>
    </edge>
    <edge id=":5130333345_2" function="internal">
        <lane id=":5130333345_2_0" index="0" disallow="tram rail_urban rail rail_electric rail_fast ship" speed="3.65" length="2.34" shape="2310.10,2972.29 2310.40,2970.88 2310.99,2970.21"/>
    </edge>
    <edge id=":5130333345_9" function="internal">
        <lane id=":5130333345_9_0" index="0" disallow="tram rail_urban rail rail_electric rail_fast ship" speed="3.65" length="2.34" shape="2310.99,2970.21 2311.88,2970.28 2313.07,2971.10"/>
    </edge>
    <edge id=":5130333345_3" function="internal">
        <lane id=":5130333345_3_0" index="0" disallow="tram rail_urban rail rail_electric rail_fast ship" speed="13.89" length="14.83" shape="2306.93,2957.61 2308.58,2960.94 2310.15,2964.28 2311.64,2967.66 2313.07,2971.10"/>
    </edge>
    <edge id=":5130333345_4" function="internal">
        <lane id=":5130333345_4_0" index="0" disallow="tram rail_urban rail rail_electric rail_fast ship" speed="7.89" length="6.15" shape="2306.93,2957.61 2308.22,2961.38 2308.04,2963.53"/>
    </edge>
    <edge id=":5130333345_5" function="internal">
        <lane id=":5130333345_5_0" index="0" disallow="tram rail_urban rail rail_electric rail_fast ship" speed="3.65" length="2.34" shape="2306.93,2957.61 2306.76,2959.04 2306.23,2959.76"/>
    </edge>
    <edge id=":5130333345_10" function="internal">
        <lane id=":5130333345_10_0" index="0" disallow="tram rail_urban rail rail_electric rail_fast ship" speed="7.89" length="8.29" shape="2308.04,2963.53 2307.94,2964.60 2306.11,2967.25 2302.71,2969.35"/>
    </edge>
    <edge id=":5130333345_11" function="internal">
        <lane id=":5130333345_11_0" index="0" disallow="tram rail_urban rail rail_electric rail_fast ship" speed="3.65" length="2.34" shape="2306.23,2959.76 2305.34,2959.76 2304.08,2959.06"/>
    </edge>
    <edge id=":5130333345_6" function="internal">
        <lane id=":5130333345_6_0" index="0" disallow="tram rail_urban rail rail_electric rail_fast ship" speed="6.37" length="9.04" shape="2301.44,2966.41 2303.57,2965.10 2304.71,2963.44 2304.89,2961.42 2304.08,2959.06"/>
    </edge>
    <edge id=":5130333345_7" function="internal">
        <lane id=":5130333345_7_0" index="0" disallow="tram rail_urban rail rail_electric rail_fast ship" speed="7.98" length="14.39" shape="2301.44,2966.41 2305.28,2965.35 2308.50,2965.78 2311.09,2967.70 2313.07,2971.10"/>
    </edge>
    <edge id=":5130333345_8" function="internal">
        <lane id=":5130333345_8_0" index="0" disallow="tram rail_urban rail rail_electric rail_fast ship" speed="3.65" length="4.67" shape="2301.44,2966.41 2302.86,2966.67 2303.54,2967.24 2303.49,2968.13 2302.71,2969.35"/>
    </edge>
    <edge id=":6584935018_0" function="internal">
        <lane id=":6584935018_0_0" index="0" disallow="tram rail_urban rail rail_electric rail_fast ship" speed="7.01" length="9.64" shape="2243.79,2949.42 2242.44,2947.03 2240.72,2945.52 2238.65,2944.91 2236.22,2945.18"/>
    </edge>
    <edge id=":6584935018_1" function="internal">
        <lane id=":6584935018_1_0" index="0" disallow="tram rail_urban rail rail_electric rail_fast ship" speed="7.82" length="14.60" shape="2243.79,2949.42 2242.79,2945.48 2243.35,2942.29 2245.48,2939.85 2249.17,2938.15"/>
    </edge>
    <edge id=":6584935018_2" function="internal">
        <lane id=":6584935018_2_0" index="0" disallow="tram rail_urban rail rail_electric rail_fast ship" speed="3.65" length="4.67" shape="2243.79,2949.42 2244.07,2948.01 2244.66,2947.33 2245.55,2947.39 2246.75,2948.20"/>
    </edge>
    <edge id=":6584935018_3" function="internal">
        <lane id=":6584935018_3_0" index="0" disallow="tram rail_urban rail rail_electric rail_fast ship" speed="6.29" length="9.04" shape="2250.08,2941.22 2247.79,2942.27 2246.47,2943.78 2246.13,2945.76 2246.75,2948.20"/>
    </edge>
    <edge id=":6584935018_4" function="internal">
        <lane id=":6584935018_4_0" index="0" disallow="tram rail_urban rail rail_electric rail_fast ship" speed="13.89" length="14.41" shape="2250.08,2941.22 2236.22,2945.18"/>
    </edge>
    <edge id=":6584935018_5" function="internal">
        <lane id=":6584935018_5_0" index="0" disallow="tram rail_urban rail rail_electric rail_fast ship" speed="3.65" length="2.34" shape="2250.08,2941.22 2248.70,2940.79 2248.09,2940.14"/>
    </edge>
    <edge id=":6584935018_9" function="internal">
        <lane id=":6584935018_9_0" index="0" disallow="tram rail_urban rail rail_electric rail_fast ship" speed="3.65" length="2.34" shape="2248.09,2940.14 2248.24,2939.26 2249.17,2938.15"/>
    </edge>
    <edge id=":6584935018_6" function="internal">
        <lane id=":6584935018_6_0" index="0" disallow="tram rail_urban rail rail_electric rail_fast ship" speed="13.89" length="14.34" shape="2235.38,2942.09 2249.17,2938.15"/>
    </edge>
    <edge id=":6584935018_7" function="internal">
        <lane id=":6584935018_7_0" index="0" disallow="tram rail_urban rail rail_electric rail_fast ship" speed="8.43" length="5.63" shape="2235.38,2942.09 2239.07,2941.66 2240.91,2942.17"/>
    </edge>
    <edge id=":6584935018_8" function="internal">
        <lane id=":6584935018_8_0" index="0" disallow="tram rail_urban rail rail_electric rail_fast ship" speed="3.65" length="2.34" shape="2235.38,2942.09 2236.75,2942.55 2237.34,2943.21"/>
    </edge>
    <edge id=":6584935018_10" function="internal">
        <lane id=":6584935018_10_0" index="0" disallow="tram rail_urban rail rail_electric rail_fast ship" speed="8.43" length="8.71" shape="2240.91,2942.17 2242.19,2942.53 2244.75,2944.71 2246.75,2948.20"/>
    </edge>
    <edge id=":6584935018_11" function="internal">
        <lane id=":6584935018_11_0" index="0" disallow="tram rail_urban rail rail_electric rail_fast ship" speed="3.65" length="2.34" shape="2237.34,2943.21 2237.17,2944.09 2236.22,2945.18"/>
    </edge>
    <edge id=":6584935019_0" function="internal">
        <lane id=":6584935019_0_0" index="0" disallow="tram rail_urban rail rail_electric rail_fast ship" speed="6.08" length="7.83" shape="2264.23,2986.03 2262.16,2986.60 2260.41,2986.36 2258.98,2985.32 2257.89,2983.47"/>
    </edge>
    <edge id=":6584935019_1" function="internal">
        <lane id=":6584935019_1_0" index="0" disallow="tram rail_urban rail rail_electric rail_fast ship" speed="3.65" length="2.65" shape="2264.23,2986.03 2262.81,2985.78 2262.13,2985.20 2262.14,2984.88"/>
    </edge>
    <edge id=":6584935019_4" function="internal">
        <lane id=":6584935019_4_0" index="0" disallow="tram rail_urban rail rail_electric rail_fast ship" speed="3.65" length="2.02" shape="2262.14,2984.88 2262.18,2984.31 2262.96,2983.10"/>
    </edge>
    <edge id=":6584935019_2" function="internal">
        <lane id=":6584935019_2_0" index="0" disallow="tram rail_urban rail rail_electric rail_fast ship" speed="3.90" length="2.61" shape="2260.84,2982.24 2261.21,2982.86 2261.68,2983.21 2262.27,2983.29 2262.96,2983.10"/>
    </edge>
    <edge id=":6584935019_3" function="internal">
        <lane id=":6584935019_3_0" index="0" disallow="tram rail_urban rail rail_electric rail_fast ship" speed="3.65" length="2.08" shape="2260.84,2982.24 2260.56,2983.66 2260.15,2984.14"/>
    </edge>
    <edge id=":6584935019_5" function="internal">
        <lane id=":6584935019_5_0" index="0" disallow="tram rail_urban rail rail_electric rail_fast ship" speed="3.65" length="2.59" shape="2260.15,2984.14 2259.98,2984.33 2259.09,2984.27 2257.89,2983.47"/>
    </edge>
    <edge id=":6584935028_0" function="internal">
        <lane id=":6584935028_0_0" index="0" disallow="tram rail_urban rail rail_electric rail_fast ship" speed="13.89" length="0.48" shape="2250.75,2843.40 2250.69,2843.27 2250.65,2843.17 2250.62,2843.08 2250.58,2842.94"/>
    </edge>
    <edge id=":6584935028_1" function="internal">
        <lane id=":6584935028_1_0" index="0" disallow="tram rail_urban rail rail_electric rail_fast ship" speed="3.65" length="2.34" shape="2250.75,2843.40 2251.00,2841.98 2251.58,2841.29"/>
    </edge>
    <edge id=":6584935028_4" function="internal">
        <lane id=":6584935028_4_0" index="0" disallow="tram rail_urban rail rail_electric rail_fast ship" speed="3.65" length="2.34" shape="2251.58,2841.29 2252.47,2841.34 2253.68,2842.12"/>
    </edge>
    <edge id=":6584935028_2" function="internal">
        <lane id=":6584935028_2_0" index="0" disallow="tram rail_urban rail rail_electric rail_fast ship" speed="13.89" length="0.16" shape="2253.62,2841.97 2253.64,2842.01 2253.65,2842.04 2253.66,2842.07 2253.68,2842.12"/>
    </edge>
    <edge id=":6584935028_3" function="internal">
        <lane id=":6584935028_3_0" index="0" disallow="tram rail_urban rail rail_electric rail_fast ship" speed="3.65" length="2.34" shape="2253.62,2841.97 2253.23,2843.35 2252.59,2843.98"/>
    </edge>
    <edge id=":6584935028_5" function="internal">
        <lane id=":6584935028_5_0" index="0" disallow="tram rail_urban rail rail_electric rail_fast ship" speed="3.65" length="2.34" shape="2252.59,2843.98 2251.71,2843.84 2250.58,2842.94"/>
    </edge>
    <edge id=":6584935051_0" function="internal">