<?xml version="1.0" encoding="UTF-8"?>
<!-- generated on 2020-07-07 13:27:44.856727 by randomTrips.py UNKNOWN
  options: <doubleminus>trip-attributes=type="myType" -n osmfiles/netfiles/mau_sebudi.net.xml -a osmfiles/netfiles/mau_sebudi_rerouter.add.xml -a osmfiles/netfiles/type.add.xml -r osmfiles/roufiles/75.rou.xml -e 1 -p 0.0133333 -l
-->
<routes xmlns:xsi="http://www.w3.org/2001/XMLSchema-instance" xsi:noNamespaceSchemaLocation="http://sumo.dlr.de/xsd/routes_file.xsd">
    <trip id="0" depart="0.00" from="-gneE19" to="451798708#0" type="myType"/>
    <trip id="1" depart="0.01" from="-gneE4" to="527775828#0" type="myType"/>
    <trip id="2" depart="0.03" from="gneE35" to="-530135875#1" type="myType"/>
    <trip id="3" depart="0.04" from="210617558#1" to="451798708#0" type="myType"/>
    <trip id="4" depart="0.05" from="-gneE6" to="-527775828#0" type="myType"/>
    <trip id="5" depart="0.07" from="-451798708#2" to="210617558#1" type="myType"/>
    <trip id="6" depart="0.08" from="-210617558#1" to="-451798708#3" type="myType"/>
    <trip id="7" depart="0.09" from="-210617558#1" to="gneE27" type="myType"/>
    <trip id="8" depart="0.11" from="-gneE14" to="-gneE8" type="myType"/>
    <trip id="9" depart="0.12" from="-gneE45" to="-527775828#2" type="myType"/>
    <trip id="10" depart="0.13" from="gneE15" to="-527775975#0" type="myType"/>
    <trip id="11" depart="0.15" from="210617558#5" to="527775828#0" type="myType"/>
    <trip id="12" depart="0.16" from="-gneE32" to="-gneE23" type="myType"/>
    <trip id="13" depart="0.17" from="-gneE31" to="-gneE18" type="myType"/>
    <trip id="14" depart="0.19" from="-451798708#1" to="-451798708#3" type="myType"/>
    <trip id="15" depart="0.20" from="-527775828#0" to="gneE23" type="myType"/>
    <trip id="16" depart="0.21" from="gneE23" to="-gneE42" type="myType"/>
    <trip id="17" depart="0.23" from="451798708#3" to="gneE35" type="myType"/>
    <trip id="18" depart="0.24" from="gneE27" to="gneE28" type="myType"/>
    <trip id="19" depart="0.25" from="210617558#1" to="-gneE16" type="myType"/>
    <trip id="20" depart="0.27" from="gneE6" to="-685526965" type="myType"/>
    <trip id="21" depart="0.28" from="gneE29" to="-gneE61" type="myType"/>
    <trip id="22" depart="0.29" from="-gneE25" to="-gneE18" type="myType"/>
    <trip id="23" depart="0.31" from="gneE24" to="210617558#3" type="myType"/>
    <trip id="24" depart="0.32" from="gneE30" to="-527775975#0" type="myType"/>
    <trip id="25" depart="0.33" from="-685526965" to="-527775828#0" type="myType"/>
    <trip id="26" depart="0.35" from="-451798708#0" to="451798708#3" type="myType"/>
    <trip id="27" depart="0.36" from="210617558#2" to="-gneE58" type="myType"/>
    <trip id="28" depart="0.37" from="-530135875#1" to="527775975#0" type="myType"/>
    <trip id="29" depart="0.39" from="-gneE4" to="-gneE32" type="myType"/>
    <trip id="30" depart="0.40" from="210617558#1" to="210617558#2" type="myType"/>
    <trip id="31" depart="0.41" from="gneE41" to="451798708#4" type="myType"/>
    <trip id="32" depart="0.43" from="-gneE7" to="-gneE1" type="myType"/>
    <trip id="33" depart="0.44" from="-gneE3" to="685526965" type="myType"/>
    <trip id="34" depart="0.45" from="-451798708#3" to="-210617558#1" type="myType"/>
    <trip id="35" depart="0.47" from="-527775828#0" to="gneE61" type="myType"/>
    <trip id="36" depart="0.48" from="-451798708#0" to="gneE11" type="myType"/>
    <trip id="37" depart="0.49" from="210617558#3" to="210617558#3" type="myType"/>
    <trip id="38" depart="0.51" from="-gneE28" to="-gneE61" type="myType"/>
    <trip id="39" depart="0.52" from="-gneE10" to="-451798708#1" type="myType"/>
    <trip id="40" depart="0.53" from="-685526965" to="-527775975#0" type="myType"/>
    <trip id="41" depart="0.55" from="530135875#1" to="-gneE42" type="myType"/>
    <trip id="42" depart="0.56" from="527775828#0" to="451798708#2" type="myType"/>
    <trip id="43" depart="0.57" from="-451798708#3" to="701166838" type="myType"/>
    <trip id="44" depart="0.59" from="-gneE3" to="-gneE41" type="myType"/>
    <trip id="45" depart="0.60" from="210617558#2" to="-gneE41" type="myType"/>
    <trip id="46" depart="0.61" from="gneE17" to="gneE14" type="myType"/>
    <trip id="47" depart="0.63" from="gneE1" to="-gneE6" type="myType"/>
    <trip id="48" depart="0.64" from="gneE34" to="gneE28" type="myType"/>
    <trip id="49" depart="0.65" from="685526965" to="gneE41" type="myType"/>
    <trip id="50" depart="0.67" from="gneE15" to="-gneE61" type="myType"/>
    <trip id="51" depart="0.68" from="527775975#1" to="-210617558#5" type="myType"/>
    <trip id="52" depart="0.69" from="-gneE32" to="-210617558#3" type="myType"/>
    <trip id="53" depart="0.71" from="-210617558#3" to="-210617558#5" type="myType"/>
    <trip id="54" depart="0.72" from="-gneE24" to="-210617558#1" type="myType"/>
    <trip id="55" depart="0.73" from="210617558#5" to="-gneE25" type="myType"/>
    <trip id="56" depart="0.75" from="gneE14" to="gneE35" type="myType"/>
    <trip id="57" depart="0.76" from="-527775975#1" to="-gneE12" type="myType"/>
    <trip id="58" depart="0.77" from="451798708#3" to="-gneE59" type="myType"/>
    <trip id="59" depart="0.79" from="-527775828#0" to="210617558#3" type="myType"/>
    <trip id="60" depart="0.80" from="-451798708#1" to="-210617558#1" type="myType"/>
    <trip id="61" depart="0.81" from="gneE18" to="-gneE20" type="myType"/>
    <trip id="62" depart="0.83" from="-gneE23" to="-210617558#2" type="myType"/>
    <trip id="63" depart="0.84" from="-gneE29" to="-gneE28" type="myType"/>
    <trip id="64" depart="0.85" from="gneE25" to="451798708#3" type="myType"/>
    <trip id="65" depart="0.87" from="-gneE56" to="451798708#3" type="myType"/>
    <trip id="66" depart="0.88" from="-gneE35" to="-527775828#0" type="myType"/>
    <trip id="67" depart="0.89" from="451798708#3" to="701166838" type="myType"/>
    <trip id="68" depart="0.91" from="-gneE21" to="-gneE25" type="myType"/>
    <trip id="69" depart="0.92" from="-gneE16" to="gneE42" type="myType"/>
    <trip id="70" depart="0.93" from="527775828#1" to="210617558#5" type="myType"/>
    <trip id="71" depart="0.95" from="451798708#3" to="527775828#3" type="myType"/>
    <trip id="72" depart="0.96" from="-451798708#3" to="-gneE35" type="myType"/>
    <trip id="73" depart="0.97" from="-527775975#0" to="gneE28" type="myType"/>
    <trip id="74" depart="0.99" from="-gneE45" to="-451798708#3" type="myType"/>
    <trip id="75" depart="1.00" from="gneE43" to="-gneE4" type="myType"/>
</routes>
