<?xml version="1.0" encoding="UTF-8"?>

<!-- generated on Sat 22 Feb 2020 09:08:34 PM WITA by Eclipse SUMO netedit Version 1.4.0
<configuration xmlns:xsi="http://www.w3.org/2001/XMLSchema-instance" xsi:noNamespaceSchemaLocation="http://sumo.dlr.de/xsd/netconvertConfiguration.xsd">

    <input>
        <sumo-net-file value="/home/adisaputra/Downloads/coba.net.xml"/>
    </input>

    <output>
        <output-file value="/home/adisaputra/Downloads/coba.net.xml"/>
    </output>

    <processing>
        <geometry.min-radius.fix.railways value="false"/>
        <geometry.max-grade.fix value="false"/>
        <offset.disable-normalization value="true"/>
        <lefthand value="false"/>
    </processing>

    <junctions>
        <no-turnarounds value="true"/>
        <junctions.corner-detail value="5"/>
        <junctions.limit-turn-speed value="5.5"/>
        <rectangular-lane-cut value="false"/>
    </junctions>

    <pedestrian>
        <walkingareas value="false"/>
    </pedestrian>

    <report>
        <aggregate-warnings value="5"/>
    </report>

</configuration>
-->

<net version="1.3" junctionCornerDetail="5" limitTurnSpeed="5.50" xmlns:xsi="http://www.w3.org/2001/XMLSchema-instance" xsi:noNamespaceSchemaLocation="http://sumo.dlr.de/xsd/net_file.xsd">

    <location netOffset="-331338.64,930825.51" convBoundary="0.00,0.00,1090.98,2296.08" origBoundary="115.467038,-8.418296,115.479409,-8.376069" projParameter="+proj=utm +zone=50 +ellps=WGS84 +datum=WGS84 +units=m +no_defs"/>

    <type id="highway.bridleway" priority="1" numLanes="1" speed="2.78" allow="pedestrian" oneway="1" width="2.00"/>
    <type id="highway.bus_guideway" priority="1" numLanes="1" speed="27.78" allow="bus" oneway="1"/>
    <type id="highway.cycleway" priority="1" numLanes="1" speed="8.33" allow="bicycle" oneway="0" width="1.00"/>
    <type id="highway.footway" priority="1" numLanes="1" speed="2.78" allow="pedestrian" oneway="1" width="2.00"/>
    <type id="highway.ford" priority="1" numLanes="1" speed="2.78" allow="army" oneway="0"/>
    <type id="highway.living_street" priority="2" numLanes="1" speed="2.78" disallow="tram rail_urban rail rail_electric rail_fast ship" oneway="0"/>
    <type id="highway.motorway" priority="14" numLanes="2" speed="39.44" allow="private emergency authority army vip passenger hov taxi bus coach delivery truck trailer motorcycle evehicle custom1 custom2" oneway="1"/>
    <type id="highway.motorway_link" priority="9" numLanes="1" speed="22.22" allow="private emergency authority army vip passenger hov taxi bus coach delivery truck trailer motorcycle evehicle custom1 custom2" oneway="1"/>
    <type id="highway.path" priority="1" numLanes="1" speed="2.78" allow="pedestrian bicycle" oneway="1" width="2.00"/>
    <type id="highway.pedestrian" priority="1" numLanes="1" speed="2.78" allow="pedestrian" oneway="1" width="2.00"/>
    <type id="highway.primary" priority="12" numLanes="2" speed="27.78" disallow="tram rail_urban rail rail_electric rail_fast ship" oneway="0"/>
    <type id="highway.primary_link" priority="7" numLanes="1" speed="22.22" disallow="tram rail_urban rail rail_electric rail_fast ship" oneway="0"/>
    <type id="highway.raceway" priority="15" numLanes="2" speed="83.33" allow="vip" oneway="0"/>
    <type id="highway.residential" priority="3" numLanes="1" speed="13.89" disallow="tram rail_urban rail rail_electric rail_fast ship" oneway="0"/>
    <type id="highway.secondary" priority="11" numLanes="1" speed="27.78" disallow="tram rail_urban rail rail_electric rail_fast ship" oneway="0"/>
    <type id="highway.secondary_link" priority="6" numLanes="1" speed="22.22" disallow="tram rail_urban rail rail_electric rail_fast ship" oneway="0"/>
    <type id="highway.service" priority="1" numLanes="1" speed="5.56" allow="pedestrian delivery bicycle" oneway="0"/>
    <type id="highway.stairs" priority="1" numLanes="1" speed="1.39" allow="pedestrian" oneway="1" width="2.00"/>
    <type id="highway.step" priority="1" numLanes="1" speed="1.39" allow="pedestrian" oneway="1" width="2.00"/>
    <type id="highway.steps" priority="1" numLanes="1" speed="1.39" allow="pedestrian" oneway="1" width="2.00"/>
    <type id="highway.tertiary" priority="10" numLanes="1" speed="22.22" disallow="tram rail_urban rail rail_electric rail_fast ship" oneway="0"/>
    <type id="highway.tertiary_link" priority="5" numLanes="1" speed="22.22" disallow="tram rail_urban rail rail_electric rail_fast ship" oneway="0"/>
    <type id="highway.track" priority="1" numLanes="1" speed="5.56" disallow="tram rail_urban rail rail_electric rail_fast ship" oneway="0"/>
    <type id="highway.trunk" priority="13" numLanes="2" speed="27.78" disallow="pedestrian bicycle tram rail_urban rail rail_electric rail_fast ship" oneway="0"/>
    <type id="highway.trunk_link" priority="8" numLanes="1" speed="22.22" disallow="pedestrian bicycle tram rail_urban rail rail_electric rail_fast ship" oneway="0"/>
    <type id="highway.unclassified" priority="4" numLanes="1" speed="13.89" disallow="tram rail_urban rail rail_electric rail_fast ship" oneway="0"/>
    <type id="highway.unsurfaced" priority="1" numLanes="1" speed="8.33" disallow="tram rail_urban rail rail_electric rail_fast ship" oneway="0"/>
    <type id="railway.highspeed" priority="21" numLanes="1" speed="69.44" allow="rail_fast" oneway="1"/>
    <type id="railway.light_rail" priority="19" numLanes="1" speed="27.78" allow="rail_urban" oneway="1"/>
    <type id="railway.preserved" priority="16" numLanes="1" speed="27.78" allow="rail" oneway="1"/>
    <type id="railway.rail" priority="20" numLanes="1" speed="44.44" allow="rail" oneway="1"/>
    <type id="railway.subway" priority="18" numLanes="1" speed="27.78" allow="rail_urban" oneway="1"/>
    <type id="railway.tram" priority="17" numLanes="1" speed="13.89" allow="tram" oneway="1"/>

    <edge id=":4486134491_0" function="internal">
        <lane id=":4486134491_0_0" index="0" disallow="tram rail_urban rail rail_electric rail_fast ship" speed="3.65" length="4.67" shape="1092.03,2215.83 1092.41,2217.22 1092.19,2218.09 1091.36,2218.43 1089.93,2218.25"/>
    </edge>
    <edge id=":5130232047_0" function="internal">
        <lane id=":5130232047_0_0" index="0" disallow="tram rail_urban rail rail_electric rail_fast ship" speed="6.84" length="9.43" shape="892.84,2055.89 891.12,2054.14 889.17,2053.32 886.97,2053.44 884.53,2054.50"/>
    </edge>
    <edge id=":5130232047_1" function="internal">
        <lane id=":5130232047_1_0" index="0" disallow="tram rail_urban rail rail_electric rail_fast ship" speed="13.89" length="14.39" shape="892.84,2055.89 884.55,2044.13"/>
    </edge>
    <edge id=":5130232047_2" function="internal">
        <lane id=":5130232047_2_0" index="0" disallow="tram rail_urban rail rail_electric rail_fast ship" speed="3.65" length="2.34" shape="892.84,2055.89 892.79,2054.45 893.20,2053.66"/>
    </edge>
    <edge id=":5130232047_9" function="internal">
        <lane id=":5130232047_9_0" index="0" disallow="tram rail_urban rail rail_electric rail_fast ship" speed="3.65" length="2.34" shape="893.20,2053.66 894.09,2053.52 895.44,2054.03"/>
    </edge>
    <edge id=":5130232047_3" function="internal">
        <lane id=":5130232047_3_0" index="0" disallow="tram rail_urban rail rail_electric rail_fast ship" speed="13.89" length="14.34" shape="887.18,2042.31 895.44,2054.03"/>
    </edge>
    <edge id=":5130232047_4" function="internal">
        <lane id=":5130232047_4_0" index="0" disallow="tram rail_urban rail rail_electric rail_fast ship" speed="7.88" length="5.86" shape="887.18,2042.31 888.96,2045.88 889.05,2047.74"/>
    </edge>
    <edge id=":5130232047_5" function="internal">
        <lane id=":5130232047_5_0" index="0" disallow="tram rail_urban rail rail_electric rail_fast ship" speed="3.65" length="2.34" shape="887.18,2042.31 887.20,2043.75 886.77,2044.53"/>
    </edge>
    <edge id=":5130232047_10" function="internal">
        <lane id=":5130232047_10_0" index="0" disallow="tram rail_urban rail rail_electric rail_fast ship" speed="7.88" length="8.59" shape="889.05,2047.74 889.12,2049.11 887.64,2051.98 884.53,2054.50"/>
    </edge>
    <edge id=":5130232047_11" function="internal">
        <lane id=":5130232047_11_0" index="0" disallow="tram rail_urban rail rail_electric rail_fast ship" speed="3.65" length="2.34" shape="886.77,2044.53 885.89,2044.66 884.55,2044.13"/>
    </edge>
    <edge id=":5130232047_6" function="internal">
        <lane id=":5130232047_6_0" index="0" disallow="tram rail_urban rail rail_electric rail_fast ship" speed="6.36" length="9.04" shape="882.89,2051.75 884.84,2050.18 885.76,2048.38 885.66,2046.36 884.55,2044.13"/>
    </edge>
    <edge id=":5130232047_7" function="internal">
        <lane id=":5130232047_7_0" index="0" disallow="tram rail_urban rail rail_electric rail_fast ship" speed="8.28" length="14.28" shape="882.89,2051.75 886.54,2050.18 889.85,2050.04 892.81,2051.32 895.44,2054.03"/>
    </edge>
    <edge id=":5130232047_8" function="internal">
        <lane id=":5130232047_8_0" index="0" disallow="tram rail_urban rail rail_electric rail_fast ship" speed="3.65" length="4.67" shape="882.89,2051.75 884.34,2051.82 885.09,2052.30 885.16,2053.20 884.53,2054.50"/>
    </edge>
    <edge id=":5130232050_0" function="internal">
        <lane id=":5130232050_0_0" index="0" disallow="tram rail_urban rail rail_electric rail_fast ship" speed="13.89" length="12.09" shape="755.56,1865.85 753.68,1863.10 751.91,1860.97 749.81,1859.23 746.93,1857.68"/>
    </edge>
    <edge id=":5130232050_1" function="internal">
        <lane id=":5130232050_1_0" index="0" disallow="tram rail_urban rail rail_electric rail_fast ship" speed="7.70" length="5.41" shape="755.56,1865.85 753.74,1862.04 753.73,1860.85"/>
    </edge>
    <edge id=":5130232050_2" function="internal">
        <lane id=":5130232050_2_0" index="0" disallow="tram rail_urban rail rail_electric rail_fast ship" speed="3.65" length="2.34" shape="755.56,1865.85 755.56,1864.40 756.00,1863.63"/>
    </edge>
    <edge id=":5130232050_9" function="internal">
        <lane id=":5130232050_9_0" index="0" disallow="tram rail_urban rail rail_electric rail_fast ship" speed="7.70" length="9.55" shape="753.73,1860.85 753.72,1858.78 755.52,1856.06 759.12,1853.87"/>
    </edge>
    <edge id=":5130232050_10" function="internal">
        <lane id=":5130232050_10_0" index="0" disallow="tram rail_urban rail rail_electric rail_fast ship" speed="3.65" length="2.34" shape="756.00,1863.63 756.89,1863.51 758.22,1864.07"/>
    </edge>
    <edge id=":5130232050_3" function="internal">
        <lane id=":5130232050_3_0" index="0" disallow="tram rail_urban rail rail_electric rail_fast ship" speed="6.14" length="9.06" shape="760.38,1856.81 758.19,1858.14 757.11,1859.79 757.11,1861.76 758.22,1864.07"/>
    </edge>
    <edge id=":5130232050_4" function="internal">
        <lane id=":5130232050_4_0" index="0" disallow="tram rail_urban rail rail_electric rail_fast ship" speed="11.85" length="13.84" shape="760.38,1856.81 756.58,1858.12 753.07,1858.71 749.86,1858.56 746.93,1857.68"/>
    </edge>
    <edge id=":5130232050_5" function="internal">
        <lane id=":5130232050_5_0" index="0" disallow="tram rail_urban rail rail_electric rail_fast ship" speed="3.65" length="4.67" shape="760.38,1856.81 758.96,1856.55 758.28,1855.97 758.33,1855.07 759.12,1853.87"/>
    </edge>
    <edge id=":5130232050_6" function="internal">
        <lane id=":5130232050_6_0" index="0" disallow="tram rail_urban rail rail_electric rail_fast ship" speed="10.70" length="11.22" shape="748.24,1854.76 750.52,1855.42 753.10,1855.49 755.97,1854.98 759.12,1853.87"/>
    </edge>
    <edge id=":5130232050_7" function="internal">
        <lane id=":5130232050_7_0" index="0" disallow="tram rail_urban rail rail_electric rail_fast ship" speed="13.89" length="13.84" shape="748.24,1854.76 751.33,1856.49 753.90,1858.62 756.13,1861.15 758.22,1864.07"/>
    </edge>
    <edge id=":5130232050_8" function="internal">
        <lane id=":5130232050_8_0" index="0" disallow="tram rail_urban rail rail_electric rail_fast ship" speed="3.65" length="2.46" shape="748.24,1854.76 749.01,1855.98 749.05,1856.87 748.95,1856.95"/>
    </edge>
    <edge id=":5130232050_11" function="internal">
        <lane id=":5130232050_11_0" index="0" disallow="tram rail_urban rail rail_electric rail_fast ship" speed="3.65" length="2.21" shape="748.95,1856.95 748.35,1857.44 746.93,1857.68"/>
    </edge>
    <edge id=":5130332061_0" function="internal">
        <lane id=":5130332061_0_0" index="0" disallow="tram rail_urban rail rail_electric rail_fast ship" speed="8.99" length="1.94" shape="431.77,2204.84 431.73,2205.41 431.67,2205.80 431.54,2206.18 431.29,2206.70"/>
    </edge>
    <edge id=":5130332061_1" function="internal">
        <lane id=":5130332061_1_0" index="0" disallow="tram rail_urban rail rail_electric rail_fast ship" speed="13.89" length="0.65" shape="428.42,2205.30 428.50,2205.12 428.54,2205.00 428.56,2204.87 428.58,2204.68"/>
    </edge>
    <edge id=":5130332750_0" function="internal">
        <lane id=":5130332750_0_0" index="0" disallow="tram rail_urban rail rail_electric rail_fast ship" speed="13.89" length="14.77" shape="621.03,2244.59 609.11,2253.31"/>
    </edge>
    <edge id=":5130332750_1" function="internal">
        <lane id=":5130332750_1_0" index="0" disallow="tram rail_urban rail rail_electric rail_fast ship" speed="8.09" length="6.27" shape="621.03,2244.59 617.67,2246.53 615.30,2246.81"/>
    </edge>
    <edge id=":5130332750_2" function="internal">
        <lane id=":5130332750_2_0" index="0" disallow="tram rail_urban rail rail_electric rail_fast ship" speed="3.65" length="2.34" shape="621.03,2244.59 619.59,2244.71 618.78,2244.33"/>
    </edge>
    <edge id=":5130332750_9" function="internal">
        <lane id=":5130332750_9_0" index="0" disallow="tram rail_urban rail rail_electric rail_fast ship" speed="8.09" length="8.14" shape="615.30,2246.81 614.46,2246.91 611.39,2245.72 608.47,2242.98"/>
    </edge>
    <edge id=":5130332750_10" function="internal">
        <lane id=":5130332750_10_0" index="0" disallow="tram rail_urban rail rail_electric rail_fast ship" speed="3.65" length="2.34" shape="618.78,2244.33 618.60,2243.46 619.04,2242.08"/>
    </edge>
    <edge id=":5130332750_3" function="internal">
        <lane id=":5130332750_3_0" index="0" disallow="tram rail_urban rail rail_electric rail_fast ship" speed="6.61" length="9.29" shape="610.95,2240.96 612.85,2242.75 614.83,2243.54 616.90,2243.31 619.04,2242.08"/>
    </edge>
    <edge id=":5130332750_4" function="internal">
        <lane id=":5130332750_4_0" index="0" disallow="tram rail_urban rail rail_electric rail_fast ship" speed="7.85" length="14.53" shape="610.95,2240.96 613.02,2244.43 613.40,2247.64 612.10,2250.60 609.11,2253.31"/>
    </edge>
    <edge id=":5130332750_5" function="internal">
        <lane id=":5130332750_5_0" index="0" disallow="tram rail_urban rail rail_electric rail_fast ship" speed="3.65" length="4.67" shape="610.95,2240.96 611.09,2242.40 610.72,2243.21 609.84,2243.41 608.47,2242.98"/>
    </edge>
    <edge id=":5130332750_6" function="internal">
        <lane id=":5130332750_6_0" index="0" disallow="tram rail_urban rail rail_electric rail_fast ship" speed="6.33" length="9.04" shape="607.32,2250.66 609.18,2248.97 609.99,2247.13 609.75,2245.13 608.47,2242.98"/>
    </edge>
    <edge id=":5130332750_7" function="internal">
        <lane id=":5130332750_7_0" index="0" disallow="tram rail_urban rail rail_electric rail_fast ship" speed="13.89" length="14.52" shape="607.32,2250.66 619.04,2242.08"/>
    </edge>
    <edge id=":5130332750_8" function="internal">
        <lane id=":5130332750_8_0" index="0" disallow="tram rail_urban rail rail_electric rail_fast ship" speed="3.65" length="2.34" shape="607.32,2250.66 608.76,2250.65 609.54,2251.09"/>
    </edge>
    <edge id=":5130332750_11" function="internal">
        <lane id=":5130332750_11_0" index="0" disallow="tram rail_urban rail rail_electric rail_fast ship" speed="3.65" length="2.34" shape="609.54,2251.09 609.66,2251.97 609.11,2253.31"/>
    </edge>
    <edge id=":5130332761_0" function="internal">
        <lane id=":5130332761_0_0" index="0" disallow="tram rail_urban rail rail_electric rail_fast ship" speed="13.89" length="0.30" shape="435.68,2209.09 435.46,2209.30"/>
    </edge>
    <edge id=":5130332761_1" function="internal">
        <lane id=":5130332761_1_0" index="0" disallow="tram rail_urban rail rail_electric rail_fast ship" speed="13.89" length="0.30" shape="433.19,2207.05 433.39,2206.84"/>
    </edge>
    <edge id=":5130332762_0" function="internal">
        <lane id=":5130332762_0_0" index="0" disallow="tram rail_urban rail rail_electric rail_fast ship" speed="13.89" length="10.58" shape="428.42,2216.42 426.25,2218.59 424.61,2220.10 422.86,2221.47 420.35,2223.23"/>
    </edge>
    <edge id=":5130332762_1" function="internal">
        <lane id=":5130332762_1_0" index="0" disallow="tram rail_urban rail rail_electric rail_fast ship" speed="6.17" length="9.21" shape="428.42,2216.42 424.16,2220.32 422.02,2221.24 422.01,2220.12"/>
    </edge>
    <edge id=":5130332762_2" function="internal">
        <lane id=":5130332762_2_0" index="0" disallow="tram rail_urban rail rail_electric rail_fast ship" speed="3.71" length="2.94" shape="428.42,2216.42 427.09,2217.14 426.16,2217.12 425.87,2216.72"/>
    </edge>
    <edge id=":5130332762_9" function="internal">
        <lane id=":5130332762_9_0" index="0" disallow="tram rail_urban rail rail_electric rail_fast ship" speed="6.17" length="6.39" shape="422.01,2220.12 422.00,2219.18 424.11,2214.16"/>
    </edge>
    <edge id=":5130332762_10" function="internal">
        <lane id=":5130332762_10_0" index="0" disallow="tram rail_urban rail rail_electric rail_fast ship" speed="3.71" length="1.94" shape="425.87,2216.72 425.61,2216.37 425.46,2214.87"/>
    </edge>
    <edge id=":5130332762_3" function="internal">
        <lane id=":5130332762_3_0" index="0" disallow="tram rail_urban rail rail_electric rail_fast ship" speed="4.00" length="5.38" shape="426.94,2215.65 427.67,2213.91 427.66,2213.21 426.93,2213.52 425.46,2214.87"/>
    </edge>
    <edge id=":5130332762_4" function="internal">
        <lane id=":5130332762_4_0" index="0" disallow="tram rail_urban rail rail_electric rail_fast ship" speed="13.89" length="10.25" shape="426.94,2215.65 425.57,2218.33 424.38,2220.06 422.82,2221.48 420.35,2223.23"/>
    </edge>
    <edge id=":5130332762_5" function="internal">
        <lane id=":5130332762_5_0" index="0" disallow="tram rail_urban rail rail_electric rail_fast ship" speed="3.65" length="4.68" shape="426.94,2215.65 425.67,2216.34 424.78,2216.32 424.26,2215.59 424.11,2214.16"/>
    </edge>
    <edge id=":5130332762_6" function="internal">
        <lane id=":5130332762_6_0" index="0" disallow="tram rail_urban rail rail_electric rail_fast ship" speed="13.81" length="8.68" shape="418.55,2220.59 420.63,2219.11 421.95,2217.91 422.95,2216.44 424.11,2214.16"/>
    </edge>
    <edge id=":5130332762_7" function="internal">
        <lane id=":5130332762_7_0" index="0" disallow="tram rail_urban rail rail_electric rail_fast ship" speed="13.89" length="9.00" shape="418.55,2220.59 420.74,2219.07 422.21,2217.97 423.57,2216.75 425.46,2214.87"/>
    </edge>
    <edge id=":5130332762_8" function="internal">
        <lane id=":5130332762_8_0" index="0" disallow="tram rail_urban rail rail_electric rail_fast ship" speed="3.65" length="2.34" shape="418.55,2220.59 419.99,2220.57 420.77,2221.00"/>
    </edge>
    <edge id=":5130332762_11" function="internal">
        <lane id=":5130332762_11_0" index="0" disallow="tram rail_urban rail rail_electric rail_fast ship" speed="3.65" length="2.34" shape="420.77,2221.00 420.89,2221.89 420.35,2223.23"/>
    </edge>
    <edge id=":5130332764_0" function="internal">
        <lane id=":5130332764_0_0" index="0" disallow="tram rail_urban rail rail_electric rail_fast ship" speed="3.65" length="4.67" shape="404.81,2150.57 406.14,2150.03 407.03,2150.15 407.47,2150.92 407.45,2152.37"/>
    </edge>
    <edge id=":5130332783_0" function="internal">
        <lane id=":5130332783_0_0" index="0" disallow="tram rail_urban rail rail_electric rail_fast ship" speed="7.97" length="2.30" shape="440.27,2269.55 439.62,2269.36 439.19,2269.18 438.80,2268.91 438.29,2268.46"/>
    </edge>
    <edge id=":5130332783_1" function="internal">
        <lane id=":5130332783_1_0" index="0" disallow="tram rail_urban rail rail_electric rail_fast ship" speed="13.89" length="0.77" shape="440.44,2266.09 440.61,2266.24 440.74,2266.33 440.89,2266.39 441.10,2266.46"/>
    </edge>
    <edge id=":5130332784_0" function="internal">
        <lane id=":5130332784_0_0" index="0" disallow="tram rail_urban rail rail_electric rail_fast ship" speed="13.89" length="0.68" shape="426.08,2257.36 425.93,2257.22 425.83,2257.12 425.74,2257.02 425.61,2256.86"/>
    </edge>
    <edge id=":5130332784_1" function="internal">
        <lane id=":5130332784_1_0" index="0" disallow="tram rail_urban rail rail_electric rail_fast ship" speed="13.89" length="0.23" shape="428.08,2254.83 428.12,2254.88 428.15,2254.91 428.19,2254.94 428.24,2254.99"/>
    </edge>
    <edge id=":5130332785_0" function="internal">
        <lane id=":5130332785_0_0" index="0" disallow="tram rail_urban rail rail_electric rail_fast ship" speed="13.89" length="15.19" shape="406.89,2234.19 404.47,2231.26 401.92,2228.38 399.15,2225.78 396.05,2223.68"/>
    </edge>
    <edge id=":5130332785_1" function="internal">
        <lane id=":5130332785_1_0" index="0" disallow="tram rail_urban rail rail_electric rail_fast ship" speed="7.40" length="7.14" shape="406.89,2234.19 403.68,2229.23 403.62,2228.00"/>
    </edge>
    <edge id=":5130332785_2" function="internal">
        <lane id=":5130332785_2_0" index="0" disallow="tram rail_urban rail rail_electric rail_fast ship" speed="3.65" length="2.34" shape="406.89,2234.19 406.74,2232.76 407.10,2231.94"/>
    </edge>
    <edge id=":5130332785_9" function="internal">
        <lane id=":5130332785_9_0" index="0" disallow="tram rail_urban rail rail_electric rail_fast ship" speed="7.40" length="11.57" shape="403.62,2228.00 403.50,2225.79 406.36,2223.86 412.26,2223.44"/>
    </edge>
    <edge id=":5130332785_10" function="internal">
        <lane id=":5130332785_10_0" index="0" disallow="tram rail_urban rail rail_electric rail_fast ship" speed="3.65" length="2.34" shape="407.10,2231.94 407.97,2231.74 409.35,2232.16"/>
    </edge>
    <edge id=":5130332785_3" function="internal">
        <lane id=":5130332785_3_0" index="0" disallow="tram rail_urban rail rail_electric rail_fast ship" speed="5.50" length="9.60" shape="412.11,2226.64 409.09,2226.85 407.62,2227.84 407.71,2229.61 409.35,2232.16"/>
    </edge>
    <edge id=":5130332785_4" function="internal">
        <lane id=":5130332785_4_0" index="0" disallow="tram rail_urban rail rail_electric rail_fast ship" speed="13.89" length="16.45" shape="412.11,2226.64 408.11,2226.41 403.86,2225.96 399.71,2225.11 396.05,2223.68"/>
    </edge>
    <edge id=":5130332785_5" function="internal">
        <lane id=":5130332785_5_0" index="0" disallow="tram rail_urban rail rail_electric rail_fast ship" speed="3.65" length="4.67" shape="412.11,2226.64 410.95,2225.79 410.59,2224.97 411.02,2224.19 412.26,2223.44"/>
    </edge>
    <edge id=":5130332785_6" function="internal">
        <lane id=":5130332785_6_0" index="0" disallow="tram rail_urban rail rail_electric rail_fast ship" speed="13.89" length="15.04" shape="397.57,2220.87 401.02,2222.24 404.69,2222.96 408.47,2223.28 412.26,2223.44"/>
    </edge>
    <edge id=":5130332785_7" function="internal">
        <lane id=":5130332785_7_0" index="0" disallow="tram rail_urban rail rail_electric rail_fast ship" speed="13.89" length="16.41" shape="397.57,2220.87 400.82,2223.09 403.92,2225.96 406.79,2229.10 409.35,2232.16"/>
    </edge>
    <edge id=":5130332785_8" function="internal">
        <lane id=":5130332785_8_0" index="0" disallow="tram rail_urban rail rail_electric rail_fast ship" speed="3.65" length="2.50" shape="397.57,2220.87 398.24,2222.14 398.22,2223.03 398.08,2223.13"/>
    </edge>
    <edge id=":5130332785_11" function="internal">
        <lane id=":5130332785_11_0" index="0" disallow="tram rail_urban rail rail_electric rail_fast ship" speed="3.65" length="2.17" shape="398.08,2223.13 397.48,2223.55 396.05,2223.68"/>
    </edge>
    <edge id=":5130332788_0" function="internal">
        <lane id=":5130332788_0_0" index="0" disallow="tram rail_urban rail rail_electric rail_fast ship" speed="13.89" length="12.16" shape="361.32,2202.70 358.53,2200.89 356.06,2199.59 353.44,2198.76 350.17,2198.35"/>
    </edge>
    <edge id=":5130332788_1" function="internal">
        <lane id=":5130332788_1_0" index="0" disallow="tram rail_urban rail rail_electric rail_fast ship" speed="7.73" length="5.39" shape="361.32,2202.70 358.22,2199.91 357.74,2198.79"/>
    </edge>
    <edge id=":5130332788_2" function="internal">
        <lane id=":5130332788_2_0" index="0" disallow="tram rail_urban rail rail_electric rail_fast ship" speed="3.65" length="2.34" shape="361.32,2202.70 360.77,2201.37 360.88,2200.48"/>
    </edge>
    <edge id=":5130332788_9" function="internal">
        <lane id=":5130332788_9_0" index="0" disallow="tram rail_urban rail rail_electric rail_fast ship" speed="7.73" length="9.47" shape="357.74,2198.79 356.95,2196.91 357.51,2193.70 359.90,2190.28"/>
    </edge>
    <edge id=":5130332788_10" function="internal">
        <lane id=":5130332788_10_0" index="0" disallow="tram rail_urban rail rail_electric rail_fast ship" speed="3.65" length="2.34" shape="360.88,2200.48 361.66,2200.04 363.10,2200.04"/>
    </edge>
    <edge id=":5130332788_3" function="internal">
        <lane id=":5130332788_3_0" index="0" disallow="tram rail_urban rail rail_electric rail_fast ship" speed="6.18" length="9.05" shape="362.23,2192.47 360.77,2194.56 360.43,2196.51 361.21,2198.34 363.10,2200.04"/>
    </edge>
    <edge id=":5130332788_4" function="internal">
        <lane id=":5130332788_4_0" index="0" disallow="tram rail_urban rail rail_electric rail_fast ship" speed="11.38" length="13.84" shape="362.23,2192.47 359.29,2195.17 356.30,2197.05 353.26,2198.11 350.17,2198.35"/>
    </edge>
    <edge id=":5130332788_5" function="internal">
        <lane id=":5130332788_5_0" index="0" disallow="tram rail_urban rail rail_electric rail_fast ship" speed="3.65" length="4.67" shape="362.23,2192.47 360.83,2192.80 359.97,2192.55 359.66,2191.71 359.90,2190.28"/>
    </edge>
    <edge id=":5130332788_6" function="internal">
        <lane id=":5130332788_6_0" index="0" disallow="tram rail_urban rail rail_electric rail_fast ship" speed="10.21" length="11.06" shape="350.35,2195.16 352.72,2194.95 355.10,2194.07 357.50,2192.51 359.90,2190.28"/>
    </edge>
    <edge id=":5130332788_7" function="internal">
        <lane id=":5130332788_7_0" index="0" disallow="tram rail_urban rail rail_electric rail_fast ship" speed="13.89" length="13.83" shape="350.35,2195.16 353.86,2195.64 357.04,2196.66 360.05,2198.14 363.10,2200.04"/>
    </edge>
    <edge id=":5130332788_8" function="internal">
        <lane id=":5130332788_8_0" index="0" disallow="tram rail_urban rail rail_electric rail_fast ship" speed="3.65" length="2.45" shape="350.35,2195.16 351.50,2196.02 351.86,2196.84 351.80,2196.94"/>
    </edge>
    <edge id=":5130332788_11" function="internal">
        <lane id=":5130332788_11_0" index="0" disallow="tram rail_urban rail rail_electric rail_fast ship" speed="3.65" length="2.22" shape="351.80,2196.94 351.42,2197.62 350.17,2198.35"/>
    </edge>
    <edge id=":5130332792_0" function="internal">
        <lane id=":5130332792_0_0" index="0" disallow="tram rail_urban rail rail_electric rail_fast ship" speed="3.65" length="4.67" shape="209.20,2232.65 207.84,2232.18 207.25,2231.50 207.44,2230.63 208.40,2229.55"/>
    </edge>
    <edge id=":5409442365_0" function="internal">
        <lane id=":5409442365_0_0" index="0" disallow="tram rail_urban rail rail_electric rail_fast ship" speed="3.65" length="4.67" shape="998.93,1808.15 999.89,1809.23 1000.08,1810.10 999.49,1810.78 998.13,1811.25"/>
    </edge>

    <edge id="-451798721#1" from="5130232047" to="5130232050" priority="4" type="highway.unclassified" shape="890.09,2049.32 830.10,1962.69 823.32,1953.39 817.37,1945.82 812.97,1940.59 801.86,1927.12 794.22,1917.56 785.12,1906.30 779.31,1898.63 764.77,1876.72 752.51,1858.42">
        <lane id="-451798721#1_0" index="0" disallow="tram rail_urban rail rail_electric rail_fast ship" speed="13.89" length="220.20" shape="884.55,2044.13 828.80,1963.62 822.04,1954.36 816.13,1946.83 811.74,1941.61 800.62,1928.13 792.97,1918.56 783.86,1907.29 778.00,1899.56 763.44,1877.61 755.56,1865.85"/>
    </edge>
    <edge id="-451798721#2" from="4486134491" to="5130232047" priority="4" type="highway.unclassified" shape="1090.98,2217.04 1074.41,2202.65 1050.57,2179.06 1026.47,2171.30 996.09,2172.69 973.05,2176.13 936.21,2113.62 890.09,2049.32">
        <lane id="-451798721#2_0" index="0" disallow="tram rail_urban rail rail_electric rail_fast ship" speed="13.89" length="279.87" shape="1089.93,2218.25 1073.32,2203.82 1049.72,2180.47 1026.25,2172.91 996.25,2174.28 972.22,2177.87 934.87,2114.49 892.84,2055.89"/>
    </edge>