<?xml version="1.0" encoding="UTF-8"?>

<!-- generated on Sat Feb 22 22:00:52 2020 by Eclipse SUMO polyconvert Version 1.4.0
<configuration xmlns:xsi="http://www.w3.org/2001/XMLSchema-instance" xsi:noNamespaceSchemaLocation="http://sumo.dlr.de/xsd/polyconvertConfiguration.xsd">

    <input>
        <net-file value="coba.net.xml"/>
        <osm-files value="/home/adisaputra/Downloads/mapcoba.osm"/>
        <type-file value="osmPolyconvert.typ.xml"/>
    </input>

    <output>
        <output-file value="coba.poly.xml"/>
    </output>

    <processing>
        <poi-layer-offset value="5"/>
    </processing>

</configuration>
-->

<additional xmlns:xsi="http://www.w3.org/2001/XMLSchema-instance" xsi:noNamespaceSchemaLocation="http://sumo.dlr.de/xsd/additional_file.xsd">
    <location netOffset="-331338.64,930825.51" convBoundary="-115.41,-46.34,1231.61,4628.55" origBoundary="115.467038,-8.418296,115.479409,-8.376069" projParameter="+proj=utm +zone=50 +ellps=WGS84 +datum=WGS84 +units=m +no_defs"/>

    <poly id="527761852" type="building" color="255,230,230" fill="1" layer="-1.00" shape="862.840701,1990.669179 868.364442,1986.211627 863.070383,1979.743473 857.546685,1984.189965 862.840701,1990.669179"/>
    <poly id="527761853" type="building" color="255,230,230" fill="1" layer="-1.00" shape="849.009789,1979.025263 856.265657,1973.767115 852.015182,1967.977633 844.759358,1973.224721 849.009789,1979.025263"/>
    <poly id="527761854" type="building" color="255,230,230" fill="1" layer="-1.00" shape="831.830184,1953.422530 836.300457,1950.829910 833.368454,1945.830762 828.887169,1948.423339 831.830184,1953.422530"/>
    <poly id="527761855" type="building" color="255,230,230" fill="1" layer="-1.00" shape="822.996379,1945.314889 832.328301,1938.604988 828.318994,1933.103982 818.987073,1939.813883 822.996379,1945.314889"/>
    <poly id="527761856" type="building" color="255,230,230" fill="1" layer="-1.00" shape="789.143951,1953.555168 795.950760,1950.496087 792.707651,1943.372338 785.900885,1946.420359 789.143951,1953.555168"/>
    <poly id="527761857" type="building" color="255,230,230" fill="1" layer="-1.00" shape="784.157011,1944.577731 793.333602,1938.165834 789.642548,1932.953604 780.465915,1939.376559 784.157011,1944.577731"/>
    <poly id="527761858" type="building" color="255,230,230" fill="1" layer="-1.00" shape="803.006816,1920.154646 812.629241,1915.204310 808.737677,1907.746261 799.115252,1912.696596 803.006816,1920.154646"/>
    <poly id="527761859" type="building" color="255,230,230" fill="1" layer="-1.00" shape="776.675022,1891.873117 787.811812,1885.479905 782.681116,1876.656738 771.544328,1883.049948 776.675022,1891.873117"/>
    <poly id="527761860" type="building" color="255,230,230" fill="1" layer="-1.00" shape="839.392889,1869.235265 850.487595,1865.164332 847.326863,1856.680611 836.232201,1860.740484 839.392889,1869.235265"/>
    <poly id="527761861" type="building" color="255,230,230" fill="1" layer="-1.00" shape="829.403582,1855.250635 833.198378,1853.606492 830.425721,1847.280844 826.619869,1848.936003 829.403582,1855.250635"/>
    <poly id="527761862" type="building" color="255,230,230" fill="1" layer="-1.00" shape="822.932357,1848.479293 829.737987,1845.718807 827.195951,1839.559945 820.390322,1842.320431 822.932357,1848.479293"/>
    <poly id="527761864" type="building" color="255,230,230" fill="1" layer="-1.00" shape="810.415549,1875.581240 820.983245,1871.099070 817.316066,1862.580200 806.759427,1867.051352 810.415549,1875.581240"/>
    <poly id="527761865" type="building" color="255,230,230" fill="1" layer="-1.00" shape="766.600157,1863.079713 772.963568,1860.759887 771.154439,1855.875692 764.791028,1858.195518 766.600157,1863.079713"/>
    <poly id="527761866" type="building" color="255,230,230" fill="1" layer="-1.00" shape="779.138566,1867.242543 784.424243,1864.531448 780.609348,1857.184286 775.323714,1859.884321 779.138566,1867.242543"/>
    <poly id="527761867" type="building" color="255,230,230" fill="1" layer="-1.00" shape="769.650924,1877.181147 778.971445,1873.401932 776.156764,1866.556328 766.836244,1870.335542 769.650924,1877.181147"/>
    <poly id="527761868" type="building" color="255,230,230" fill="1" layer="-1.00" shape="684.287742,1875.090631 692.579971,1869.537941 689.371641,1864.803128 681.079413,1870.355817 684.287742,1875.090631"/>
    <poly id="527761869" type="building" color="255,230,230" fill="1" layer="-1.00" shape="700.838461,1872.655625 708.828182,1868.428873 705.635683,1862.455479 697.634950,1866.682187 700.838461,1872.655625"/>
    <poly id="527761870" type="building" color="255,230,230" fill="1" layer="-1.00" shape="692.288310,1868.076976 704.137450,1859.751176 699.931531,1853.840194 688.082434,1862.154934 692.288310,1868.076976"/>
    <poly id="527761871" type="building" color="255,230,230" fill="1" layer="-1.00" shape="723.790842,1858.069208 732.113776,1853.113835 724.924724,1841.197100 716.601748,1846.163531 723.790842,1858.069208"/>
    <poly id="527761878" type="building" color="255,230,230" fill="1" layer="-1.00" shape="733.337263,1833.023814 741.477751,1829.671331 738.848186,1823.368350 730.707742,1826.709773 733.337263,1833.023814"/>
    <poly id="527775903" type="building" color="255,230,230" fill="1" layer="-1.00" shape="869.245810,2014.460531 878.449762,2009.508551 874.360163,2001.994446 865.156211,2006.946425 869.245810,2014.460531"/>
    <poly id="527775905" type="building" color="255,230,230" fill="1" layer="-1.00" shape="917.570623,2122.056311 927.060833,2117.127548 922.458427,2108.372817 912.968218,2113.301578 917.570623,2122.056311"/>
    <poly id="527775907" type="building" color="255,230,230" fill="1" layer="-1.00" shape="937.709076,2108.929727 945.189901,2105.298155 942.272537,2099.359035 934.791756,2102.979548 937.709076,2108.929727"/>
    <poly id="527775909" type="building" color="255,230,230" fill="1" layer="-1.00" shape="932.131394,2098.921507 942.591230,2093.863797 939.018261,2086.595013 928.569439,2091.652765 932.131394,2098.921507"/>
    <poly id="527775922" type="building" color="255,230,230" fill="1" layer="-1.00" shape="717.017490,2268.730608 728.865053,2269.329645 729.186952,2263.016028 717.339348,2262.428050 717.017490,2268.730608"/>
    <poly id="527775924" type="building" color="255,230,230" fill="1" layer="-1.00" shape="704.020729,2269.122437 712.145856,2269.740180 712.632820,2263.460382 704.507695,2262.842639 704.020729,2269.122437"/>
    <poly id="527775927" type="building" color="255,230,230" fill="1" layer="-1.00" shape="745.220125,2308.753341 754.262665,2305.680830 749.928563,2293.067421 740.886025,2296.139930 745.220125,2308.753341"/>
    <poly id="527775929" type="building" color="255,230,230" fill="1" layer="-1.00" shape="762.828885,2187.180402 774.924282,2180.680315 770.758147,2173.022131 758.662708,2179.533276 762.828885,2187.180402"/>
    <poly id="527775931" type="building" color="255,230,230" fill="1" layer="-1.00" shape="754.279219,2182.458010 760.785750,2177.329668 756.401948,2171.838262 749.895417,2176.966603 754.279219,2182.458010"/>
    <poly id="527775933" type="building" color="255,230,230" fill="1" layer="-1.00" shape="764.669829,2169.724902 772.490911,2163.562095 768.633140,2158.736294 760.812057,2164.899101 764.669829,2169.724902"/>
    <poly id="527775936" type="building" color="255,230,230" fill="1" layer="-1.00" shape="797.692699,2148.287626 802.398881,2153.006129 808.324521,2147.156669 803.618297,2142.449225 797.692699,2148.287626"/>
    <poly id="527775939" type="building" color="255,230,230" fill="1" layer="-1.00" shape="794.300046,2145.631261 800.678885,2139.352251 796.192100,2134.855786 789.813217,2141.145856 794.300046,2145.631261"/>
    <poly id="527775941" type="building" color="255,230,230" fill="1" layer="-1.00" shape="648.365117,2072.879503 654.434882,2069.618503 648.355244,2058.435992 642.274424,2061.708007 648.365117,2072.879503"/>
    <poly id="527775943" type="building" color="255,230,230" fill="1" layer="-1.00" shape="570.502372,2081.822046 579.604953,2074.635743 574.848559,2068.678370 565.734966,2075.864629 570.502372,2081.822046"/>
    <poly id="527775944" type="building" color="255,230,230" fill="1" layer="-1.00" shape="572.977277,2091.077275 580.975187,2084.760358 576.985936,2079.768133 568.988026,2086.085050 572.977277,2091.077275"/>
    <poly id="527775945" type="building" color="255,230,230" fill="1" layer="-1.00" shape="632.829694,2043.622440 640.189146,2040.056800 637.239089,2034.040109 629.879637,2037.605747 632.829694,2043.622440"/>
    <poly id="527775947" type="building" color="255,230,230" fill="1" layer="-1.00" shape="641.790673,2016.219137 649.690775,2012.390177 647.090328,2007.093702 639.190270,2010.911602 641.790673,2016.219137"/>
    <poly id="527775948" type="building" color="255,230,230" fill="1" layer="-1.00" shape="645.002317,2025.764770 652.990995,2021.814501 650.138718,2016.141030 642.161054,2020.091340 645.002317,2025.764770"/>
    <poly id="527775949" type="building" color="255,230,230" fill="1" layer="-1.00" shape="659.772333,1951.724797 663.576781,1950.434602 661.333434,1943.934051 657.528986,1945.224246 659.772333,1951.724797"/>
    <poly id="527775952" type="building" color="255,230,230" fill="1" layer="-1.00" shape="648.659330,1960.484770 657.364853,1956.271869 651.552164,1944.415775 642.846643,1948.628674 648.659330,1960.484770"/>
    <poly id="527775954" type="building" color="255,230,230" fill="1" layer="-1.00" shape="628.437621,1958.205263 640.060513,1954.258085 636.826293,1944.856133 625.192347,1948.814326 628.437621,1958.205263"/>
    <poly id="527775956" type="building" color="255,230,230" fill="1" layer="-1.00" shape="633.119788,1969.083741 643.524967,1963.926356 640.465006,1957.853938 630.059871,1963.000264 633.119788,1969.083741"/>
    <poly id="527775957" type="building" color="255,230,230" fill="1" layer="-1.00" shape="642.071636,1944.024980 649.024249,1940.291869 643.644411,1930.406017 636.691799,1934.139127 642.071636,1944.024980"/>
    <poly id="527775958" type="building" color="255,230,230" fill="1" layer="-1.00" shape="652.285892,1939.817953 663.214074,1936.100312 659.097725,1924.151286 648.169545,1927.868925 652.285892,1939.817953"/>
    <poly id="527775960" type="building" color="255,230,230" fill="1" layer="-1.00" shape="556.493595,1886.769483 571.853096,1879.154121 568.399840,1872.272833 553.040341,1879.888194 556.493595,1886.769483"/>
    <poly id="527775961" type="building" color="255,230,230" fill="1" layer="-1.00" shape="564.868420,1896.777606 576.378865,1890.596025 572.376826,1883.237051 560.866383,1889.418630 564.868420,1896.777606"/>
    <poly id="527775963" type="building" color="255,230,230" fill="1" layer="-1.00" shape="448.574670,1873.730399 457.500475,1866.687208 451.560489,1859.254310 442.634684,1866.297500 448.574670,1873.730399"/>
    <poly id="527775965" type="building" color="255,230,230" fill="1" layer="-1.00" shape="583.571018,2252.518276 591.513716,2246.245374 587.129923,2240.753948 579.176255,2247.015747 583.571018,2252.518276"/>
    <poly id="527775967" type="building" color="255,230,230" fill="1" layer="-1.00" shape="570.245530,2260.971031 576.166614,2256.304924 572.385639,2251.556817 566.453499,2256.233940 570.245530,2260.971031"/>
    <poly id="527775968" type="building" color="255,230,230" fill="1" layer="-1.00" shape="572.864177,2270.083046 579.845758,2264.580558 577.719571,2261.929104 570.749047,2267.420576 572.864177,2270.083046"/>
    <poly id="527776010" type="building" color="255,230,230" fill="1" layer="-1.00" shape="963.235441,1961.862689 968.716721,1959.826949 966.678317,1954.422090 961.208051,1956.457872 963.235441,1961.862689"/>
    <poly id="527776011" type="building" color="255,230,230" fill="1" layer="-1.00" shape="959.344913,1976.810818 970.439628,1972.739852 967.398756,1964.577332 956.304085,1968.637238 959.344913,1976.810818"/>
    <poly id="527776012" type="building" color="255,230,230" fill="1" layer="-1.00" shape="853.481047,2044.181986 861.771514,2039.082686 858.499010,2033.849973 850.208543,2038.949272 853.481047,2044.181986"/>
    <poly id="527776013" type="building" color="255,230,230" fill="1" layer="-1.00" shape="863.489799,2053.178926 869.467130,2048.192288 862.999303,2040.536228 857.021973,2045.522865 863.489799,2053.178926"/>
    <poly id="527776014" type="building" color="255,230,230" fill="1" layer="-1.00" shape="916.224610,2048.982234 923.929721,2044.311963 919.836758,2037.660477 912.142704,2042.319731 916.224610,2048.982234"/>
    <poly id="530144835" type="water" color="181,209,209" fill="0" layer="-4.00" shape="430.712956,2136.297790 456.819157,2109.403669 466.968357,2079.505601 457.040945,2052.471105 426.583069,1983.685050 411.972887,1943.128841 384.919390,1910.752262 367.261787,1894.835402 340.277050,1844.841529 334.532194,1804.319836 331.146345,1763.221196 330.075560,1735.635033 304.786161,1705.609826 265.870640,1684.909754 258.865087,1665.517513 247.302793,1600.321814 262.201187,1566.936504 272.320272,1547.600026 289.643601,1499.548431 290.385295,1459.052020 277.488963,1433.764278 253.938470,1412.549021 195.551218,1389.428241 137.153004,1366.307328 116.592940,1335.128123 118.553988,1287.005495 145.934638,1235.465301 134.374993,1169.694430 140.468018,1121.001801 147.245113,1049.430051 122.063660,994.753758 107.465709,951.266632 56.844788,902.352293 -17.944129,841.023212 -39.714704,820.986957 -55.012713,804.492892 -102.091877,756.764449 -108.474342,727.398975 -115.410074,687.458581 -107.470724,622.936156 -93.093338,570.759068 -80.572157,542.639887 -51.415812,487.589917 -46.526582,448.281964 -25.691078,406.105696 -27.855907,357.093193 -45.020722,288.657025 -41.242412,243.383727 -41.051612,225.589959 -40.860378,207.685600 -44.550848,168.642658 -65.305564,114.270971 -70.436024,66.131583 -63.842273,41.506082 -55.442256,8.383005 -41.391511,-33.532257 -15.054875,-46.335402"/>
    <poly id="530177216" type="building" color="255,230,230" fill="1" layer="-1.00" shape="915.946825,2063.789569 923.078763,2059.249782 917.123482,2050.058479 910.002558,2054.598308 915.946825,2063.789569"/>
    <poly id="530177227" type="building" color="255,230,230" fill="1" layer="-1.00" shape="737.114800,1869.788622 744.948059,1866.147399 741.846108,1859.543980 734.001838,1863.185159 737.114800,1869.788622"/>
    <poly id="560959255" type="water" color="181,209,209" fill="0" layer="-4.00" shape="1231.610209,4628.546352 1222.442238,4555.729775 1229.814331,4480.632593 1227.925150,4359.714166 1218.769032,4281.025134 1196.741925,4172.946009 1179.335147,4091.880445 1149.986691,4040.119977 1153.964634,3928.624587 1156.537001,3875.804331 1107.284637,3779.353548 1093.304357,3726.480221 1055.860256,3632.430693 1007.859670,3517.205860 989.402781,3403.267777 924.738242,3319.674089 888.436950,3235.018048 866.345956,3141.027758 727.455434,3003.142820 640.571339,2861.953695 599.633345,2754.972544 598.838504,2656.364559 595.703315,2550.713736 597.132873,2486.154984 595.007160,2423.938032 559.705039,2388.587774 479.598036,2326.056154 439.569732,2288.342781"/>
    <poly id="562360942" type="water" color="181,209,209" fill="0" layer="-4.00" shape="425.176568,2192.037365 430.712956,2136.297790"/>
    <poly id="562360943" type="water" color="181,209,209" fill="0" layer="-4.00" shape="439.569732,2288.342781 425.176568,2192.037365"/>
</additional>
